(PID.TID 0000.0001) ** Warning ** MNC_READPARMS: ignores "data.mnc" file since
(PID.TID 0000.0001) ** Warning ** MNC_READPARMS: useMNC= F (set from "data.pkg")
(PID.TID 0000.0001) *** ERROR ***  MDS_READ_FIELD: filename: domain_temp.bin , domain_temp.bin.001.001.data
(PID.TID 0000.0001) *** ERROR ***  MDS_READ_FIELD: Files DO not exist
