(PID.TID 0001.0001) ** Warning ** MNC_READPARMS: ignores "data.mnc" file since
(PID.TID 0001.0001) ** Warning ** MNC_READPARMS: useMNC= F (set from "data.pkg")
