(PID.TID 0007.0001) 
(PID.TID 0007.0001) // ======================================================
(PID.TID 0007.0001) //                      MITgcm UV
(PID.TID 0007.0001) //                      =========
(PID.TID 0007.0001) // ======================================================
(PID.TID 0007.0001) // execution environment starting up...
(PID.TID 0007.0001) 
(PID.TID 0007.0001) // MITgcmUV version:  checkpoint67r
(PID.TID 0007.0001) // Build user:        mitgcm
(PID.TID 0007.0001) // Build host:        mitgcm-VirtualBox
(PID.TID 0007.0001) // Build date:        Thu Jul  2 15:55:17 PDT 2020
(PID.TID 0007.0001) 
(PID.TID 0007.0001) // =======================================================
(PID.TID 0007.0001) // Execution Environment parameter file "eedata"
(PID.TID 0007.0001) // =======================================================
(PID.TID 0007.0001) ># Example "eedata" file
(PID.TID 0007.0001) ># Lines beginning "#" are comments
(PID.TID 0007.0001) >#  nTx      :: No. threads per process in X
(PID.TID 0007.0001) >#  nTy      :: No. threads per process in Y
(PID.TID 0007.0001) ># debugMode :: print debug msg (sequence of S/R calls)
(PID.TID 0007.0001) > &EEPARMS
(PID.TID 0007.0001) > nTx=1,
(PID.TID 0007.0001) > nTy=1,
(PID.TID 0007.0001) > useSETRLSTK=.TRUE.,
(PID.TID 0007.0001) > debugMode=.TRUE.,
(PID.TID 0007.0001) > /
(PID.TID 0007.0001) ># Note: Some systems use & as the namelist terminator (as shown here).
(PID.TID 0007.0001) >#       Other systems use a / character.
(PID.TID 0007.0001) 
(PID.TID 0007.0001) // =======================================================
(PID.TID 0007.0001) // Computational Grid Specification ( see files "SIZE.h" )
(PID.TID 0007.0001) //                                  ( and "eedata"       )
(PID.TID 0007.0001) // =======================================================
(PID.TID 0007.0001)      nPx =    9 ; /* No. processes in X */
(PID.TID 0007.0001)      nPy =    1 ; /* No. processes in Y */
(PID.TID 0007.0001)      nSx =    1 ; /* No. tiles in X per process */
(PID.TID 0007.0001)      nSy =    1 ; /* No. tiles in Y per process */
(PID.TID 0007.0001)      sNx =   10 ; /* Tile size in X */
(PID.TID 0007.0001)      sNy =   40 ; /* Tile size in Y */
(PID.TID 0007.0001)      OLx =    3 ; /* Tile overlap distance in X */
(PID.TID 0007.0001)      OLy =    3 ; /* Tile overlap distance in Y */
(PID.TID 0007.0001)      nTx =    1 ; /* No. threads in X per process */
(PID.TID 0007.0001)      nTy =    1 ; /* No. threads in Y per process */
(PID.TID 0007.0001)       Nr =   15 ; /* No. levels in the vertical   */
(PID.TID 0007.0001)       Nx =   90 ; /* Total domain size in X ( = nPx*nSx*sNx ) */
(PID.TID 0007.0001)       Ny =   40 ; /* Total domain size in Y ( = nPy*nSy*sNy ) */
(PID.TID 0007.0001)   nTiles =    1 ; /* Total no. tiles per process ( = nSx*nSy ) */
(PID.TID 0007.0001)   nProcs =    9 ; /* Total no. processes ( = nPx*nPy ) */
(PID.TID 0007.0001) nThreads =    1 ; /* Total no. threads per process ( = nTx*nTy ) */
(PID.TID 0007.0001) usingMPI =    T ; /* Flag used to control whether MPI is in use */
(PID.TID 0007.0001)                   /*  note: To execute a program with MPI calls */
(PID.TID 0007.0001)                   /*  it must be launched appropriately e.g     */
(PID.TID 0007.0001)                   /*  "mpirun -np 64 ......"                    */
(PID.TID 0007.0001) useCoupler=    F ;/* Flag used to control communications with   */
(PID.TID 0007.0001)                   /*  other model components, through a coupler */
(PID.TID 0007.0001) useNest2W_parent =    F ;/* Control 2-W Nesting comm */
(PID.TID 0007.0001) useNest2W_child  =    F ;/* Control 2-W Nesting comm */
(PID.TID 0007.0001) debugMode =    T ; /* print debug msg. (sequence of S/R calls)  */
(PID.TID 0007.0001) printMapIncludesZeros=    F ; /* print zeros in Std.Output maps */
(PID.TID 0007.0001) maxLengthPrt1D=   65 /* maxLength of 1D array printed to StdOut */
(PID.TID 0007.0001) 
(PID.TID 0007.0001) ======= Starting MPI parallel Run =========
(PID.TID 0007.0001)  My Processor Name (len: 17 ) = mitgcm-VirtualBox
(PID.TID 0007.0001)  Located at (  7,  0) on processor grid (0:  8,0:  0)
(PID.TID 0007.0001)  Origin at  (    71,     1) on global grid (1:    90,1:    40)
(PID.TID 0007.0001)  North neighbor = processor 0007
(PID.TID 0007.0001)  South neighbor = processor 0007
(PID.TID 0007.0001)   East neighbor = processor 0008
(PID.TID 0007.0001)   West neighbor = processor 0006
(PID.TID 0007.0001) // ======================================================
(PID.TID 0007.0001) // Mapping of tiles to threads
(PID.TID 0007.0001) // ======================================================
(PID.TID 0007.0001) // -o- Thread   1, tiles (   1:   1,   1:   1)
(PID.TID 0007.0001) 
(PID.TID 0007.0001) W2_READPARMS: file data.exch2 not found
(PID.TID 0007.0001) => use W2_EXCH2 default: Single sub-domain (nFacets=1)
(PID.TID 0007.0001) W2_useE2ioLayOut=    T ;/* T: use Exch2 glob IO map; F: use model default */
(PID.TID 0007.0001) W2_mapIO        =  -1 ; /* select option for Exch2 global-IO map */
(PID.TID 0007.0001) W2_printMsg     =  -1 ; /* select option for printing information */
(PID.TID 0007.0001) ===== Start setting W2 TOPOLOGY:
(PID.TID 0007.0001)  write to log-file: w2_tile_topology.0007.log
(PID.TID 0007.0001) =====       setting W2 TOPOLOGY: Done
(PID.TID 0007.0001) 
(PID.TID 0007.0001) DEBUG_MSG: ENTERED S/R THE_MODEL_MAIN
(PID.TID 0007.0001) DEBUG_MSG: CALLING S/R INITIALISE_FIXED
(PID.TID 0007.0001) DEBUG_MSG: ENTERED S/R INITIALISE_FIXED
(PID.TID 0007.0001) DEBUG_MSG: CALLING S/R INI_PARMS
(PID.TID 0007.0001)  INI_PARMS: opening model parameter file "data"
(PID.TID 0007.0001)  OPEN_COPY_DATA_FILE: opening file data
(PID.TID 0007.0001) // =======================================================
(PID.TID 0007.0001) // Parameter file "data"
(PID.TID 0007.0001) // =======================================================
(PID.TID 0007.0001) ># ====================
(PID.TID 0007.0001) ># | Model parameters |
(PID.TID 0007.0001) ># ====================
(PID.TID 0007.0001) >#
(PID.TID 0007.0001) ># Continuous equation parameters
(PID.TID 0007.0001) > &PARM01
(PID.TID 0007.0001) > tRef = 15*20.,
(PID.TID 0007.0001) > sRef = 15*35.,
(PID.TID 0007.0001) > viscAr=1.E-3,
(PID.TID 0007.0001) > viscAh=5.E5,
(PID.TID 0007.0001) > viscA4=1.E14,
(PID.TID 0007.0001) > diffKhT=0.,
(PID.TID 0007.0001) > diffKrT=3.E-5,
(PID.TID 0007.0001) > diffKhS=0.,
(PID.TID 0007.0001) > diffKrS=3.E-5,
(PID.TID 0007.0001) > rhoConst=1035.,
(PID.TID 0007.0001) > rhoConstFresh=1000.,
(PID.TID 0007.0001) > gravity=9.81,
(PID.TID 0007.0001) > eosType='JMD95P',
(PID.TID 0007.0001) > ivdc_kappa=10.,
(PID.TID 0007.0001) > implicitDiffusion=.TRUE.,
(PID.TID 0007.0001) > allowFreezing=.TRUE.,
(PID.TID 0007.0001) > exactConserv=.TRUE.,
(PID.TID 0007.0001) > select_rStar=2,
(PID.TID 0007.0001) > nonlinFreeSurf=4,
(PID.TID 0007.0001) > hFacInf=0.2,
(PID.TID 0007.0001) > hFacSup=2.0,
(PID.TID 0007.0001) > useRealFreshWaterFlux=.TRUE.,
(PID.TID 0007.0001) > useCDscheme=.TRUE.,
(PID.TID 0007.0001) > quasiHydrostatic=.TRUE.,
(PID.TID 0007.0001) > useNHMTerms=.TRUE.,
(PID.TID 0007.0001) ># turn on looped cells
(PID.TID 0007.0001) > hFacMin=.05,
(PID.TID 0007.0001) > hFacMindr=50.,
(PID.TID 0007.0001) >#- to check that it has no impact:
(PID.TID 0007.0001) > doResetHFactors=.TRUE.,
(PID.TID 0007.0001) ># set precision of data files
(PID.TID 0007.0001) > readBinaryPrec=32,
(PID.TID 0007.0001) >#writeBinaryPrec=64,
(PID.TID 0007.0001) > debugLevel = 99,
(PID.TID 0007.0001) > /
(PID.TID 0007.0001) >
(PID.TID 0007.0001) ># Elliptic solver parameters
(PID.TID 0007.0001) > &PARM02
(PID.TID 0007.0001) > cg2dMaxIters=500,
(PID.TID 0007.0001) > cg2dTargetResidual=1.E-13,
(PID.TID 0007.0001) > /
(PID.TID 0007.0001) >
(PID.TID 0007.0001) ># Time stepping parameters
(PID.TID 0007.0001) > &PARM03
(PID.TID 0007.0001) > nIter0=36000,
(PID.TID 0007.0001) > nTimeSteps=1,
(PID.TID 0007.0001) ># 100 years of integration will yield a reasonable flow field
(PID.TID 0007.0001) ># startTime =          0.,
(PID.TID 0007.0001) ># endTime   = 3110400000.,
(PID.TID 0007.0001) > deltaTmom = 1800.,
(PID.TID 0007.0001) > tauCD =     321428.,
(PID.TID 0007.0001) > deltaTtracer= 86400.,
(PID.TID 0007.0001) > deltaTClock = 86400.,
(PID.TID 0007.0001) > deltaTfreesurf= 86400.,
(PID.TID 0007.0001) > abEps = 0.1,
(PID.TID 0007.0001) > pChkPtFreq= 311040000.,
(PID.TID 0007.0001) > dumpFreq=   311040000.,
(PID.TID 0007.0001) > dumpFreq=   864000.,
(PID.TID 0007.0001) >#monitorFreq=31104000.,
(PID.TID 0007.0001) > monitorFreq=1.,
(PID.TID 0007.0001) ># 2 months restoring timescale for temperature
(PID.TID 0007.0001) > tauThetaClimRelax=  5184000.,
(PID.TID 0007.0001) ># 6 months restoring timescale for salinity
(PID.TID 0007.0001) > tauSaltClimRelax = 15552000.,
(PID.TID 0007.0001) > periodicExternalForcing=.TRUE.,
(PID.TID 0007.0001) > externForcingPeriod=2592000.,
(PID.TID 0007.0001) > externForcingCycle=31104000.,
(PID.TID 0007.0001) > /
(PID.TID 0007.0001) >
(PID.TID 0007.0001) ># Gridding parameters
(PID.TID 0007.0001) > &PARM04
(PID.TID 0007.0001) > usingSphericalPolarGrid=.TRUE.,
(PID.TID 0007.0001) > delR= 50.,  70., 100., 140., 190.,
(PID.TID 0007.0001) >      240., 290., 340., 390., 440.,
(PID.TID 0007.0001) >      490., 540., 590., 640., 690.,
(PID.TID 0007.0001) > ygOrigin=-80.,
(PID.TID 0007.0001) > dySpacing=4.,
(PID.TID 0007.0001) > dxSpacing=4.,
(PID.TID 0007.0001) > /
(PID.TID 0007.0001) >
(PID.TID 0007.0001) ># Input datasets
(PID.TID 0007.0001) > &PARM05
(PID.TID 0007.0001) > bathyFile=      'bathymetry.bin',
(PID.TID 0007.0001) > hydrogThetaFile='lev_t.bin',
(PID.TID 0007.0001) > hydrogSaltFile= 'lev_s.bin',
(PID.TID 0007.0001) > zonalWindFile=  'trenberth_taux.bin',
(PID.TID 0007.0001) > meridWindFile=  'trenberth_tauy.bin',
(PID.TID 0007.0001) > thetaClimFile=  'lev_sst.bin',
(PID.TID 0007.0001) > saltClimFile=   'lev_sss.bin',
(PID.TID 0007.0001) > surfQnetFile=   'ncep_qnet.bin',
(PID.TID 0007.0001) > the_run_name=   'global_ocean.90x40x15',
(PID.TID 0007.0001) > EmPmRFile=      'ncep_emp.bin',
(PID.TID 0007.0001) > /
(PID.TID 0007.0001) 
(PID.TID 0007.0001)  INI_PARMS ; starts to read PARM01
(PID.TID 0007.0001)  INI_PARMS ; read PARM01 : OK
(PID.TID 0007.0001) S/R INI_PARMS: No request for barotropic solver
(PID.TID 0007.0001) S/R INI_PARMS: => Use implicitFreeSurface as default
(PID.TID 0007.0001)  INI_PARMS ; starts to read PARM02
(PID.TID 0007.0001)  INI_PARMS ; read PARM02 : OK
(PID.TID 0007.0001)  INI_PARMS ; starts to read PARM03
(PID.TID 0007.0001)  INI_PARMS ; read PARM03 : OK
(PID.TID 0007.0001)  INI_PARMS ; starts to read PARM04
(PID.TID 0007.0001)  INI_PARMS ; read PARM04 : OK
(PID.TID 0007.0001)  INI_PARMS ; starts to read PARM05
(PID.TID 0007.0001)  INI_PARMS ; read PARM05 : OK
(PID.TID 0007.0001)  INI_PARMS: finished reading file "data"
(PID.TID 0007.0001) DEBUG_MSG: CALLING S/R PACKAGES_BOOT
(PID.TID 0007.0001)  PACKAGES_BOOT: opening data.pkg
(PID.TID 0007.0001)  OPEN_COPY_DATA_FILE: opening file data.pkg
(PID.TID 0007.0001) // =======================================================
(PID.TID 0007.0001) // Parameter file "data.pkg"
(PID.TID 0007.0001) // =======================================================
(PID.TID 0007.0001) ># Packages (lines beginning "#" are comments)
(PID.TID 0007.0001) > &PACKAGES
(PID.TID 0007.0001) > useGMRedi=.TRUE.,
(PID.TID 0007.0001) > useSBO=.TRUE.,
(PID.TID 0007.0001) > useDiagnostics=.TRUE.,
(PID.TID 0007.0001) >#useMNC=.TRUE.,
(PID.TID 0007.0001) > /
(PID.TID 0007.0001) 
(PID.TID 0007.0001)  PACKAGES_BOOT: finished reading data.pkg
(PID.TID 0007.0001)  PACKAGES_BOOT: On/Off package Summary
 --------  pkgs with a standard "usePKG" On/Off switch in "data.pkg":  --------
 pkg/ggl90                compiled but not used ( useGGL90                 = F )
 pkg/kpp                  compiled but not used ( useKPP                   = F )
 pkg/gmredi               compiled   and   used ( useGMRedi                = T )
 pkg/down_slope           compiled but not used ( useDOWN_SLOPE            = F )
 pkg/sbo                  compiled   and   used ( useSBO                   = T )
 pkg/ptracers             compiled but not used ( usePTRACERS              = F )
 pkg/diagnostics          compiled   and   used ( useDiagnostics           = T )
 pkg/mnc                  compiled but not used ( useMNC                   = F )
 -------- pkgs without standard "usePKG" On/Off switch in "data.pkg":  --------
 pkg/generic_advdiff      compiled   and   used ( useGAD                   = T )
 pkg/mom_common           compiled   and   used ( momStepping              = T )
 pkg/mom_vecinv           compiled but not used ( +vectorInvariantMomentum = F )
 pkg/mom_fluxform         compiled   and   used ( & not vectorInvariantMom = T )
 pkg/cd_code              compiled   and   used ( useCDscheme              = T )
 pkg/monitor              compiled   and   used ( monitorFreq > 0.         = T )
 pkg/debug                compiled   and   used ( debugMode                = T )
 pkg/exch2                compiled   and   used
 pkg/rw                   compiled   and   used
 pkg/mdsio                compiled   and   used
(PID.TID 0007.0001)  PACKAGES_BOOT: End of package Summary
(PID.TID 0007.0001) 
(PID.TID 0007.0001) DEBUG_MSG: CALLING S/R PACKAGES_READPARMS
(PID.TID 0007.0001)  GM_READPARMS: opening data.gmredi
(PID.TID 0007.0001)  OPEN_COPY_DATA_FILE: opening file data.gmredi
(PID.TID 0007.0001) // =======================================================
(PID.TID 0007.0001) // Parameter file "data.gmredi"
(PID.TID 0007.0001) // =======================================================
(PID.TID 0007.0001) ># GM+Redi package parameters:
(PID.TID 0007.0001) >
(PID.TID 0007.0001) >#-from MOM :
(PID.TID 0007.0001) ># GM_background_K: 	G & Mc.W  diffusion coefficient
(PID.TID 0007.0001) ># GM_maxSlope    :	max slope of isopycnals
(PID.TID 0007.0001) ># GM_Scrit       :	transition for scaling diffusion coefficient
(PID.TID 0007.0001) ># GM_Sd          :	half width scaling for diffusion coefficient
(PID.TID 0007.0001) ># GM_taper_scheme:	slope clipping or one of the tapering schemes
(PID.TID 0007.0001) ># GM_Kmin_horiz  :	horizontal diffusion minimum value
(PID.TID 0007.0001) >
(PID.TID 0007.0001) >#-Option parameters (needs to "define" options in GMREDI_OPTIONS.h")
(PID.TID 0007.0001) ># GM_isopycK     :	isopycnal diffusion coefficient (default=GM_background_K)
(PID.TID 0007.0001) ># GM_AdvForm     :	turn on GM Advective form       (default=Skew flux form)
(PID.TID 0007.0001) >
(PID.TID 0007.0001) > &GM_PARM01
(PID.TID 0007.0001) >  GM_background_K    = 1.e+3,
(PID.TID 0007.0001) >  GM_taper_scheme    = 'gkw91',
(PID.TID 0007.0001) >  GM_maxSlope        = 1.e-2,
(PID.TID 0007.0001) >  GM_Kmin_horiz      = 50.,
(PID.TID 0007.0001) >  GM_Scrit           = 4.e-3,
(PID.TID 0007.0001) >  GM_Sd              = 1.e-3,
(PID.TID 0007.0001) ># GM_Visbeck_alpha   = 0.,
(PID.TID 0007.0001) ># GM_Visbeck_length  = 2.e+5,
(PID.TID 0007.0001) ># GM_Visbeck_depth   = 1.e+3,
(PID.TID 0007.0001) ># GM_Visbeck_maxval_K= 2.5e+3,
(PID.TID 0007.0001) > /
(PID.TID 0007.0001) >
(PID.TID 0007.0001) >
(PID.TID 0007.0001) 
(PID.TID 0007.0001)  GM_READPARMS: finished reading data.gmredi
(PID.TID 0007.0001)  SBO_READPARMS: opening data.sbo
(PID.TID 0007.0001)  OPEN_COPY_DATA_FILE: opening file data.sbo
(PID.TID 0007.0001) // =======================================================
(PID.TID 0007.0001) // Parameter file "data.sbo"
(PID.TID 0007.0001) // =======================================================
(PID.TID 0007.0001) >#
(PID.TID 0007.0001) > &SBO_PARM01
(PID.TID 0007.0001) > /
(PID.TID 0007.0001) 
(PID.TID 0007.0001)  SBO_READPARMS: finished reading data.sbo
(PID.TID 0007.0001)  DIAGNOSTICS_READPARMS: opening data.diagnostics
(PID.TID 0007.0001)  OPEN_COPY_DATA_FILE: opening file data.diagnostics
(PID.TID 0007.0001) // =======================================================
(PID.TID 0007.0001) // Parameter file "data.diagnostics"
(PID.TID 0007.0001) // =======================================================
(PID.TID 0007.0001) ># Diagnostic Package Choices
(PID.TID 0007.0001) >#--------------------
(PID.TID 0007.0001) >#  dumpAtLast (logical): always write output at the end of simulation (default=F)
(PID.TID 0007.0001) >#  diag_mnc   (logical): write to NetCDF files (default=useMNC)
(PID.TID 0007.0001) >#--for each output-stream:
(PID.TID 0007.0001) >#  fileName(n) : prefix of the output file name (max 80c long) for outp.stream n
(PID.TID 0007.0001) >#  frequency(n):< 0 : write snap-shot output every |frequency| seconds
(PID.TID 0007.0001) >#               > 0 : write time-average output every frequency seconds
(PID.TID 0007.0001) >#  timePhase(n)     : write at time = timePhase + multiple of |frequency|
(PID.TID 0007.0001) >#    averagingFreq  : frequency (in s) for periodic averaging interval
(PID.TID 0007.0001) >#    averagingPhase : phase     (in s) for periodic averaging interval
(PID.TID 0007.0001) >#    repeatCycle    : number of averaging intervals in 1 cycle
(PID.TID 0007.0001) >#  levels(:,n) : list of levels to write to file (Notes: declared as REAL)
(PID.TID 0007.0001) >#                when this entry is missing, select all common levels of this list
(PID.TID 0007.0001) >#  fields(:,n) : list of selected diagnostics fields (8.c) in outp.stream n
(PID.TID 0007.0001) >#                (see "available_diagnostics.log" file for the full list of diags)
(PID.TID 0007.0001) >#  missing_value(n) : missing value for real-type fields in output file "n"
(PID.TID 0007.0001) >#  fileFlags(n)     : specific code (8c string) for output file "n"
(PID.TID 0007.0001) >#--------------------
(PID.TID 0007.0001) > &DIAGNOSTICS_LIST
(PID.TID 0007.0001) ># diag_mnc     = .FALSE.,
(PID.TID 0007.0001) >#--
(PID.TID 0007.0001) >  fields(1:5,1)  = 'ETAN    ','ETANSQ  ','DETADT2 ',
(PID.TID 0007.0001) >                   'PHIBOT  ','PHIBOTSQ',
(PID.TID 0007.0001) >#                  'DSLPuFlw','DSLPvFlw',
(PID.TID 0007.0001) >   fileName(1) = 'surfDiag',
(PID.TID 0007.0001) ># frequency(1) = 311040000.,
(PID.TID 0007.0001) >  frequency(1) = 864000.,
(PID.TID 0007.0001) >
(PID.TID 0007.0001) >  fields(1:6,2)  = 'UVELMASS','VVELMASS','WVEL    ',
(PID.TID 0007.0001) >#                  'UVEL    ','VVEL    ','PHIHYD  ',
(PID.TID 0007.0001) >                   'THETA   ','SALT    ','WVELSQ  ',
(PID.TID 0007.0001) ># do not specify levels => all levels are selected
(PID.TID 0007.0001) >   fileName(2) = 'dynDiag',
(PID.TID 0007.0001) ># frequency(2) = 311040000.,
(PID.TID 0007.0001) >  frequency(2) = 864000.,
(PID.TID 0007.0001) >
(PID.TID 0007.0001) >  fields(1:6,3)  = 'RHOAnoma','DRHODR  ','CONVADJ ',
(PID.TID 0007.0001) >#                  'GM_PsiX ','GM_PsiY ',
(PID.TID 0007.0001) >                   'GM_Kwx  ','GM_Kwy  ','GM_Kwz  ',
(PID.TID 0007.0001) >#                  'GM_Kux  ','GM_Kvy  ',
(PID.TID 0007.0001) >#                  'GM_Kuz  ','GM_Kvz  ',
(PID.TID 0007.0001) >#                  'DSLP_TH ','DSLP_SLT',
(PID.TID 0007.0001) >   fileName(3) = 'oceDiag',
(PID.TID 0007.0001) ># frequency(3) = 311040000.,
(PID.TID 0007.0001) >  frequency(3) = 864000.,
(PID.TID 0007.0001) > /
(PID.TID 0007.0001) >
(PID.TID 0007.0001) >#--------------------
(PID.TID 0007.0001) ># Parameter for Diagnostics of per level statistics:
(PID.TID 0007.0001) >#--------------------
(PID.TID 0007.0001) >#  diagSt_mnc (logical): write stat-diags to NetCDF files (default=diag_mnc)
(PID.TID 0007.0001) >#  diagSt_regMaskFile : file containing the region-mask to read-in
(PID.TID 0007.0001) >#  nSetRegMskFile   : number of region-mask sets within the region-mask file
(PID.TID 0007.0001) >#  set_regMask(i)   : region-mask set-index that identifies the region "i"
(PID.TID 0007.0001) >#  val_regMask(i)   : region "i" identifier value in the region mask
(PID.TID 0007.0001) >#--for each output-stream:
(PID.TID 0007.0001) >#  stat_fName(n) : prefix of the output file name (max 80c long) for outp.stream n
(PID.TID 0007.0001) >#  stat_freq(n):< 0 : write snap-shot output every |stat_freq| seconds
(PID.TID 0007.0001) >#               > 0 : write time-average output every stat_freq seconds
(PID.TID 0007.0001) >#  stat_phase(n)    : write at time = stat_phase + multiple of |stat_freq|
(PID.TID 0007.0001) >#  stat_region(:,n) : list of "regions" (default: 1 region only=global)
(PID.TID 0007.0001) >#  stat_fields(:,n) : list of selected diagnostics fields (8.c) in outp.stream n
(PID.TID 0007.0001) >#                (see "available_diagnostics.log" file for the full list of diags)
(PID.TID 0007.0001) >#--------------------
(PID.TID 0007.0001) > &DIAG_STATIS_PARMS
(PID.TID 0007.0001) >#diagSt_mnc = .FALSE.,
(PID.TID 0007.0001) >#--
(PID.TID 0007.0001) > stat_fields(1:9,1) = 'ETAN    ','ETANSQ  ','DETADT2 ',
(PID.TID 0007.0001) >                      'UVEL    ','VVEL    ','WVEL    ',
(PID.TID 0007.0001) >                      'THETA   ','SALT    ','WVELSQ  ',
(PID.TID 0007.0001) >  stat_fName(1) = 'dynStDiag',
(PID.TID 0007.0001) >   stat_freq(1) = 2592000.,
(PID.TID 0007.0001) >#  stat_freq(1) = 432000.,
(PID.TID 0007.0001) ># stat_phase(1) = 86400.,
(PID.TID 0007.0001) > stat_fields(1:3,2) = 'RHOAnoma','DRHODR  ','CONVADJ ',
(PID.TID 0007.0001) >#                     'DSLPuFlw','DSLPvFlw',
(PID.TID 0007.0001) >#                     'DSLP_TH ','DSLP_SLT',
(PID.TID 0007.0001) >#                     'DSLPTr01','Add2EmP ',
(PID.TID 0007.0001) >  stat_fName(2) = 'oceStDiag',
(PID.TID 0007.0001) >   stat_freq(2) = 2592000.,
(PID.TID 0007.0001) >#  stat_freq(2) = 432000.,
(PID.TID 0007.0001) > /
(PID.TID 0007.0001) >
(PID.TID 0007.0001) 
(PID.TID 0007.0001) S/R DIAGNOSTICS_READPARMS, read namelist "diagnostics_list": start
(PID.TID 0007.0001) S/R DIAGNOSTICS_READPARMS, read namelist "diagnostics_list": OK
(PID.TID 0007.0001) S/R DIAGNOSTICS_READPARMS, read namelist "DIAG_STATIS_PARMS": start
(PID.TID 0007.0001) S/R DIAGNOSTICS_READPARMS, read namelist "DIAG_STATIS_PARMS": OK
(PID.TID 0007.0001)  DIAGNOSTICS_READPARMS: global parameter summary:
(PID.TID 0007.0001)  dumpAtLast = /* always write time-ave diags at the end */
(PID.TID 0007.0001)                   F
(PID.TID 0007.0001)     ;
(PID.TID 0007.0001)  diag_mnc =   /* write NetCDF output files */
(PID.TID 0007.0001)                   F
(PID.TID 0007.0001)     ;
(PID.TID 0007.0001)  useMissingValue = /* put MissingValue where mask = 0 */
(PID.TID 0007.0001)                   F
(PID.TID 0007.0001)     ;
(PID.TID 0007.0001)  diagCG_maxIters = /* max number of iters in diag_cg2d */
(PID.TID 0007.0001)                     500
(PID.TID 0007.0001)     ;
(PID.TID 0007.0001)  diagCG_resTarget = /* residual target for diag_cg2d */
(PID.TID 0007.0001)                 1.000000000000000E-13
(PID.TID 0007.0001)     ;
(PID.TID 0007.0001)  diagCG_pcOffDFac = /* preconditioner off-diagonal factor */
(PID.TID 0007.0001)                 9.611687812379854E-01
(PID.TID 0007.0001)     ;
(PID.TID 0007.0001) -----------------------------------------------------
(PID.TID 0007.0001)  DIAGNOSTICS_READPARMS: active diagnostics summary:
(PID.TID 0007.0001) -----------------------------------------------------
(PID.TID 0007.0001) Creating Output Stream: surfDiag
(PID.TID 0007.0001) Output Frequency:     864000.000000 ; Phase:           0.000000
(PID.TID 0007.0001)  Averaging Freq.:     864000.000000 , Phase:           0.000000 , Cycle:   1
(PID.TID 0007.0001)  missing value: -9.990000000000E+02
(PID.TID 0007.0001)  Levels:    will be set later
(PID.TID 0007.0001)  Fields:    ETAN     ETANSQ   DETADT2  PHIBOT   PHIBOTSQ
(PID.TID 0007.0001) Creating Output Stream: dynDiag
(PID.TID 0007.0001) Output Frequency:     864000.000000 ; Phase:           0.000000
(PID.TID 0007.0001)  Averaging Freq.:     864000.000000 , Phase:           0.000000 , Cycle:   1
(PID.TID 0007.0001)  missing value: -9.990000000000E+02
(PID.TID 0007.0001)  Levels:    will be set later
(PID.TID 0007.0001)  Fields:    UVELMASS VVELMASS WVEL     THETA    SALT     WVELSQ
(PID.TID 0007.0001) Creating Output Stream: oceDiag
(PID.TID 0007.0001) Output Frequency:     864000.000000 ; Phase:           0.000000
(PID.TID 0007.0001)  Averaging Freq.:     864000.000000 , Phase:           0.000000 , Cycle:   1
(PID.TID 0007.0001)  missing value: -9.990000000000E+02
(PID.TID 0007.0001)  Levels:    will be set later
(PID.TID 0007.0001)  Fields:    RHOAnoma DRHODR   CONVADJ  GM_Kwx   GM_Kwy   GM_Kwz
(PID.TID 0007.0001) -----------------------------------------------------
(PID.TID 0007.0001)  DIAGNOSTICS_READPARMS: statistics diags. summary:
(PID.TID 0007.0001) Creating Stats. Output Stream: dynStDiag
(PID.TID 0007.0001) Output Frequency:    2592000.000000 ; Phase:           0.000000
(PID.TID 0007.0001)  Regions:   0
(PID.TID 0007.0001)  Fields:    ETAN     ETANSQ   DETADT2  UVEL     VVEL     WVEL     THETA    SALT     WVELSQ
(PID.TID 0007.0001) Creating Stats. Output Stream: oceStDiag
(PID.TID 0007.0001) Output Frequency:    2592000.000000 ; Phase:           0.000000
(PID.TID 0007.0001)  Regions:   0
(PID.TID 0007.0001)  Fields:    RHOAnoma DRHODR   CONVADJ
(PID.TID 0007.0001) -----------------------------------------------------
(PID.TID 0007.0001) 
(PID.TID 0007.0001) DEBUG_MSG: CALLING S/R SET_PARMS
(PID.TID 0007.0001) SET_PARMS: done
(PID.TID 0007.0001) DEBUG_MSG: CALLING S/R INI_MODEL_IO
(PID.TID 0007.0001) DEBUG_MSG: CALLING S/R INI_GRID
(PID.TID 0007.0001) Enter INI_VERTICAL_GRID: setInterFDr=    T ; setCenterDr=    F
(PID.TID 0007.0001) %MON XC_max                       =   3.5800000000000E+02
(PID.TID 0007.0001) %MON XC_min                       =   2.0000000000000E+00
(PID.TID 0007.0001) %MON XC_mean                      =   1.8000000000000E+02
(PID.TID 0007.0001) %MON XC_sd                        =   1.0391663325314E+02
(PID.TID 0007.0001) %MON XG_max                       =   3.5600000000000E+02
(PID.TID 0007.0001) %MON XG_min                       =   0.0000000000000E+00
(PID.TID 0007.0001) %MON XG_mean                      =   1.7800000000000E+02
(PID.TID 0007.0001) %MON XG_sd                        =   1.0391663325314E+02
(PID.TID 0007.0001) %MON DXC_max                      =   4.4443898815675E+05
(PID.TID 0007.0001) %MON DXC_min                      =   9.2460385861875E+04
(PID.TID 0007.0001) %MON DXC_mean                     =   3.1372497618153E+05
(PID.TID 0007.0001) %MON DXC_sd                       =   1.1216447457560E+05
(PID.TID 0007.0001) %MON DXF_max                      =   4.4443898815675E+05
(PID.TID 0007.0001) %MON DXF_min                      =   9.2460385861875E+04
(PID.TID 0007.0001) %MON DXF_mean                     =   3.1372497618153E+05
(PID.TID 0007.0001) %MON DXF_sd                       =   1.1216447457560E+05
(PID.TID 0007.0001) %MON DXG_max                      =   4.4470989340816E+05
(PID.TID 0007.0001) %MON DXG_min                      =   7.7223062580781E+04
(PID.TID 0007.0001) %MON DXG_mean                     =   3.1353386340261E+05
(PID.TID 0007.0001) %MON DXG_sd                       =   1.1256651772502E+05
(PID.TID 0007.0001) %MON DXV_max                      =   4.4470989340816E+05
(PID.TID 0007.0001) %MON DXV_min                      =   7.7223062580781E+04
(PID.TID 0007.0001) %MON DXV_mean                     =   3.1353386340261E+05
(PID.TID 0007.0001) %MON DXV_sd                       =   1.1256651772502E+05
(PID.TID 0007.0001) %MON YC_max                       =   7.8000000000000E+01
(PID.TID 0007.0001) %MON YC_min                       =  -7.8000000000000E+01
(PID.TID 0007.0001) %MON YC_mean                      =   0.0000000000000E+00
(PID.TID 0007.0001) %MON YC_sd                        =   4.6173585522461E+01
(PID.TID 0007.0001) %MON YG_max                       =   7.6000000000000E+01
(PID.TID 0007.0001) %MON YG_min                       =  -8.0000000000000E+01
(PID.TID 0007.0001) %MON YG_mean                      =  -2.0000000000000E+00
(PID.TID 0007.0001) %MON YG_sd                        =   4.6173585522461E+01
(PID.TID 0007.0001) %MON DYC_max                      =   4.4470989340816E+05
(PID.TID 0007.0001) %MON DYC_min                      =   4.4470989340816E+05
(PID.TID 0007.0001) %MON DYC_mean                     =   4.4470989340815E+05
(PID.TID 0007.0001) %MON DYC_sd                       =   3.0267983675003E-09
(PID.TID 0007.0001) %MON DYF_max                      =   4.4470989340816E+05
(PID.TID 0007.0001) %MON DYF_min                      =   4.4470989340816E+05
(PID.TID 0007.0001) %MON DYF_mean                     =   4.4470989340815E+05
(PID.TID 0007.0001) %MON DYF_sd                       =   3.0267983675003E-09
(PID.TID 0007.0001) %MON DYG_max                      =   4.4470989340816E+05
(PID.TID 0007.0001) %MON DYG_min                      =   4.4470989340816E+05
(PID.TID 0007.0001) %MON DYG_mean                     =   4.4470989340815E+05
(PID.TID 0007.0001) %MON DYG_sd                       =   3.0267983675003E-09
(PID.TID 0007.0001) %MON DYU_max                      =   4.4470989340816E+05
(PID.TID 0007.0001) %MON DYU_min                      =   4.4470989340816E+05
(PID.TID 0007.0001) %MON DYU_mean                     =   4.4470989340815E+05
(PID.TID 0007.0001) %MON DYU_sd                       =   3.0267983675003E-09
(PID.TID 0007.0001) %MON RA_max                       =   1.9760627980089E+11
(PID.TID 0007.0001) %MON RA_min                       =   4.1109698667290E+10
(PID.TID 0007.0001) %MON RA_mean                      =   1.3948826965196E+11
(PID.TID 0007.0001) %MON RA_sd                        =   4.9870522472902E+10
(PID.TID 0007.0001) %MON RAW_max                      =   1.9760627980089E+11
(PID.TID 0007.0001) %MON RAW_min                      =   4.1109698667290E+10
(PID.TID 0007.0001) %MON RAW_mean                     =   1.3948826965196E+11
(PID.TID 0007.0001) %MON RAW_sd                       =   4.9870522472902E+10
(PID.TID 0007.0001) %MON RAS_max                      =   1.9772672958215E+11
(PID.TID 0007.0001) %MON RAS_min                      =   3.4334886267983E+10
(PID.TID 0007.0001) %MON RAS_mean                     =   1.3940329716694E+11
(PID.TID 0007.0001) %MON RAS_sd                       =   5.0049278732353E+10
(PID.TID 0007.0001) %MON RAZ_max                      =   1.9772672958215E+11
(PID.TID 0007.0001) %MON RAZ_min                      =   3.4334886267983E+10
(PID.TID 0007.0001) %MON RAZ_mean                     =   1.3940329716694E+11
(PID.TID 0007.0001) %MON RAZ_sd                       =   5.0049278732353E+10
(PID.TID 0007.0001) %MON AngleCS_max                  =   1.0000000000000E+00
(PID.TID 0007.0001) %MON AngleCS_min                  =   1.0000000000000E+00
(PID.TID 0007.0001) %MON AngleCS_mean                 =   1.0000000000000E+00
(PID.TID 0007.0001) %MON AngleCS_sd                   =   0.0000000000000E+00
(PID.TID 0007.0001) %MON AngleSN_max                  =   0.0000000000000E+00
(PID.TID 0007.0001) %MON AngleSN_min                  =   0.0000000000000E+00
(PID.TID 0007.0001) %MON AngleSN_mean                 =   0.0000000000000E+00
(PID.TID 0007.0001) %MON AngleSN_sd                   =   0.0000000000000E+00
(PID.TID 0007.0001) DEBUG_MSG: CALLING S/R LOAD_REF_FILES
(PID.TID 0007.0001) DEBUG_MSG: CALLING S/R INI_EOS
(PID.TID 0007.0001) DEBUG_MSG: CALLING S/R SET_REF_STATE
(PID.TID 0007.0001) 
(PID.TID 0007.0001) FIND_HYD_PRESS_1D: Start to iterate (MaxIter=  150 ) until P(rho(P))
(PID.TID 0007.0001) FIND_HYD_PRESS_1D:  converges ; critera (x  5) on Rho diff= 1.035000E-11
(PID.TID 0007.0001)  iter    1, RMS-diff=  3.067292373321E-02, Max-diff= -4.865992464306E-02
(PID.TID 0007.0001)  iter    2, RMS-diff=  3.008677774568E-04, Max-diff= -5.940271378222E-04
(PID.TID 0007.0001)  iter    3, RMS-diff=  2.137566369311E-06, Max-diff= -5.763074113929E-06
(PID.TID 0007.0001)  iter    4, RMS-diff=  1.105374630434E-08, Max-diff= -3.385775926290E-08
(PID.TID 0007.0001)  iter    5, RMS-diff=  4.540984940442E-11, Max-diff= -1.493845047662E-10
(PID.TID 0007.0001)  iter    6, RMS-diff=  2.033691978340E-13, Max-diff= -6.821210263297E-13
(PID.TID 0007.0001)  iter    7, RMS-diff=  0.000000000000E+00, Max-diff=  0.000000000000E+00
(PID.TID 0007.0001) FIND_HYD_PRESS_1D: converged after    7 iters (nUnderCrit=  2 )
(PID.TID 0007.0001) DEBUG_MSG: CALLING S/R SET_GRID_FACTORS
(PID.TID 0007.0001) DEBUG_MSG: CALLING S/R INI_DEPTHS
(PID.TID 0007.0001)  MDS_READ_FIELD: opening global file: bathymetry.bin
(PID.TID 0007.0001) // =======================================================
(PID.TID 0007.0001) // Field Bottom depths (ini_depths)
(PID.TID 0007.0001) // CMIN =         -5.200000000000000E+03
(PID.TID 0007.0001) // CMAX =         -1.200000000000000E+02
(PID.TID 0007.0001) // CINT =          1.881481481481482E+02
(PID.TID 0007.0001) // SYMBOLS (CMIN->CMAX): -abcdefghijklmnopqrstuvwxyz+
(PID.TID 0007.0001) //                  0.0: .
(PID.TID 0007.0001) // RANGE I (Lo:Hi:Step):(    68:    83:     1)
(PID.TID 0007.0001) // RANGE J (Lo:Hi:Step):(    43:    -2:    -1)
(PID.TID 0007.0001) // RANGE K (Lo:Hi:Step):(   1:   1:   1)
(PID.TID 0007.0001) // =======================================================
(PID.TID 0007.0001) K =   1
(PID.TID 0007.0001) //                I=77
(PID.TID 0007.0001) // |--J--|890123456|890123
(PID.TID 0007.0001) //     43 ghjkzz..yqjgeddc
(PID.TID 0007.0001) //     42 zyy.....yyyyoiii
(PID.TID 0007.0001) //     41 ................
(PID.TID 0007.0001) //     40 ................
(PID.TID 0007.0001) //     39 .....yxxz.......
(PID.TID 0007.0001) //     38 .....zxxy+......
(PID.TID 0007.0001) //     37 ..++...zy+...ztt
(PID.TID 0007.0001) //     36 +++++++znmm.zoow
(PID.TID 0007.0001) //     35 +++....+nmiijlso
(PID.TID 0007.0001) //     34 ........+nihhikk
(PID.TID 0007.0001) //     33 .........zqvddfl
(PID.TID 0007.0001) //     32 ........+++gdffk
(PID.TID 0007.0001) //     31 ......qbaafccdhq
(PID.TID 0007.0001) //     30 ....zfbb--fbcdos
(PID.TID 0007.0001) //     29 ....eaac--abfmij
(PID.TID 0007.0001) //     28 ...qbaa---aemfbb
(PID.TID 0007.0001) //     27 +y.qb-----akfa--
(PID.TID 0007.0001) //     26 xssuy-----bgca--
(PID.TID 0007.0001) //     25 .ssum+xaaacjbaab
(PID.TID 0007.0001) //     24 u.zummwwbbchba--
(PID.TID 0007.0001) //     23 iq....zykccefa--
(PID.TID 0007.0001) //     22 iqq......xeeehhe
(PID.TID 0007.0001) //     21 qoo........ieefl
(PID.TID 0007.0001) //     20 ijl.........nhfa
(PID.TID 0007.0001) //     19 fff...........d-
(PID.TID 0007.0001) //     18 fdd+..........d-
(PID.TID 0007.0001) //     17 eddj.........hd-
(PID.TID 0007.0001) //     16 eddjf........re-
(PID.TID 0007.0001) //     15 eejfff......+fd-
(PID.TID 0007.0001) //     14 jiffff.....zlfda
(PID.TID 0007.0001) //     13 igfffq....+jgfod
(PID.TID 0007.0001) //     12 hggff.....kbbbdf
(PID.TID 0007.0001) //     11 iggff....l---abc
(PID.TID 0007.0001) //     10 gijgi..+w--aa-ab
(PID.TID 0007.0001) //      9 efglv.++w-----ab
(PID.TID 0007.0001) //      8 bdeg+.++xffn--cf
(PID.TID 0007.0001) //      7 aabedfiiiiiisvkf
(PID.TID 0007.0001) //      6 aabbdfiiiiispmmr
(PID.TID 0007.0001) //      5 abbbdfiijsqgeccc
(PID.TID 0007.0001) //      4 ccefhmz..yjgeccc
(PID.TID 0007.0001) //      3 ghjkzz..yqjgeddc
(PID.TID 0007.0001) //      2 zyy.....yyyyoiii
(PID.TID 0007.0001) //      1 ................
(PID.TID 0007.0001) //      0 ................
(PID.TID 0007.0001) //     -1 .....yxxz.......
(PID.TID 0007.0001) //     -2 .....zxxy+......
(PID.TID 0007.0001) // =======================================================
(PID.TID 0007.0001) // END OF FIELD                                          =
(PID.TID 0007.0001) // =======================================================
(PID.TID 0007.0001) 
(PID.TID 0007.0001) // =======================================================
(PID.TID 0007.0001) // Field Surface reference r-position (ini_depths)
(PID.TID 0007.0001) // CMIN =          1.000000000000000E+32
(PID.TID 0007.0001) // CMAX =         -1.000000000000000E+32
(PID.TID 0007.0001) // CINT =          0.000000000000000E+00
(PID.TID 0007.0001) // SYMBOLS (CMIN->CMAX): -abcdefghijklmnopqrstuvwxyz+
(PID.TID 0007.0001) //                  0.0: .
(PID.TID 0007.0001) // RANGE I (Lo:Hi:Step):(    68:    83:     1)
(PID.TID 0007.0001) // RANGE J (Lo:Hi:Step):(    43:    -2:    -1)
(PID.TID 0007.0001) // RANGE K (Lo:Hi:Step):(   1:   1:   1)
(PID.TID 0007.0001) // =======================================================
(PID.TID 0007.0001) // =======================================================
(PID.TID 0007.0001) // END OF FIELD                                          =
(PID.TID 0007.0001) // =======================================================
(PID.TID 0007.0001) 
(PID.TID 0007.0001) DEBUG_MSG: CALLING S/R INI_MASKS_ETC
(PID.TID 0007.0001) // =======================================================
(PID.TID 0007.0001) // Field Model R_low (ini_masks_etc)
(PID.TID 0007.0001) // CMIN =         -5.200000000000000E+03
(PID.TID 0007.0001) // CMAX =         -1.200000000000000E+02
(PID.TID 0007.0001) // CINT =          1.881481481481482E+02
(PID.TID 0007.0001) // SYMBOLS (CMIN->CMAX): -abcdefghijklmnopqrstuvwxyz+
(PID.TID 0007.0001) //                  0.0: .
(PID.TID 0007.0001) // RANGE I (Lo:Hi:Step):(    68:    83:     1)
(PID.TID 0007.0001) // RANGE J (Lo:Hi:Step):(    43:    -2:    -1)
(PID.TID 0007.0001) // RANGE K (Lo:Hi:Step):(   1:   1:   1)
(PID.TID 0007.0001) // =======================================================
(PID.TID 0007.0001) K =   1
(PID.TID 0007.0001) //                I=77
(PID.TID 0007.0001) // |--J--|890123456|890123
(PID.TID 0007.0001) //     43 ................
(PID.TID 0007.0001) //     42 zyy.....yyyyoiii
(PID.TID 0007.0001) //     41 ................
(PID.TID 0007.0001) //     40 ................
(PID.TID 0007.0001) //     39 .....yxxz.......
(PID.TID 0007.0001) //     38 .....zxxy+......
(PID.TID 0007.0001) //     37 ..++...zy+...ytt
(PID.TID 0007.0001) //     36 +++++++znmm.yoow
(PID.TID 0007.0001) //     35 +++....+nmiijlso
(PID.TID 0007.0001) //     34 ........+nihhikk
(PID.TID 0007.0001) //     33 .........zqvddfl
(PID.TID 0007.0001) //     32 ........+++gdffk
(PID.TID 0007.0001) //     31 ......qbaafccdhq
(PID.TID 0007.0001) //     30 ....zfbb--fbcdos
(PID.TID 0007.0001) //     29 ....eaac--abfmij
(PID.TID 0007.0001) //     28 ...qbaa---aemfbb
(PID.TID 0007.0001) //     27 +x.qb-----akfa--
(PID.TID 0007.0001) //     26 xssuy-----bgca--
(PID.TID 0007.0001) //     25 .ssum+xaaacjbaab
(PID.TID 0007.0001) //     24 u.zummwwbbchba--
(PID.TID 0007.0001) //     23 iq....zykccefa--
(PID.TID 0007.0001) //     22 iqq......xeeehhe
(PID.TID 0007.0001) //     21 qoo........ieefl
(PID.TID 0007.0001) //     20 ijl.........nhfa
(PID.TID 0007.0001) //     19 fff...........d-
(PID.TID 0007.0001) //     18 fdd+..........d-
(PID.TID 0007.0001) //     17 eddj.........hd-
(PID.TID 0007.0001) //     16 eddjf........re-
(PID.TID 0007.0001) //     15 eejfff......+fd-
(PID.TID 0007.0001) //     14 jiffff.....zlfda
(PID.TID 0007.0001) //     13 igfffq....+jgfod
(PID.TID 0007.0001) //     12 hggff.....kbbbdf
(PID.TID 0007.0001) //     11 iggff....l---abc
(PID.TID 0007.0001) //     10 gijgi..+w--aa-ab
(PID.TID 0007.0001) //      9 efglv.++w-----ab
(PID.TID 0007.0001) //      8 bceg+.++xffn--cf
(PID.TID 0007.0001) //      7 aabedfiiiiiisvkf
(PID.TID 0007.0001) //      6 aabbdfiiiiispmmr
(PID.TID 0007.0001) //      5 abbbdfiijsqgeccc
(PID.TID 0007.0001) //      4 ccefhmz..yjgeccc
(PID.TID 0007.0001) //      3 ghjkyy..yqjgeddc
(PID.TID 0007.0001) //      2 zyy.....yyyyoiii
(PID.TID 0007.0001) //      1 ................
(PID.TID 0007.0001) //      0 ................
(PID.TID 0007.0001) //     -1 .....yxxz.......
(PID.TID 0007.0001) //     -2 ................
(PID.TID 0007.0001) // =======================================================
(PID.TID 0007.0001) // END OF FIELD                                          =
(PID.TID 0007.0001) // =======================================================
(PID.TID 0007.0001) 
(PID.TID 0007.0001) // =======================================================
(PID.TID 0007.0001) // Field Model Ro_surf (ini_masks_etc)
(PID.TID 0007.0001) // CMIN =          1.000000000000000E+32
(PID.TID 0007.0001) // CMAX =         -1.000000000000000E+32
(PID.TID 0007.0001) // CINT =          0.000000000000000E+00
(PID.TID 0007.0001) // SYMBOLS (CMIN->CMAX): -abcdefghijklmnopqrstuvwxyz+
(PID.TID 0007.0001) //                  0.0: .
(PID.TID 0007.0001) // RANGE I (Lo:Hi:Step):(    68:    83:     1)
(PID.TID 0007.0001) // RANGE J (Lo:Hi:Step):(    43:    -2:    -1)
(PID.TID 0007.0001) // RANGE K (Lo:Hi:Step):(   1:   1:   1)
(PID.TID 0007.0001) // =======================================================
(PID.TID 0007.0001) // =======================================================
(PID.TID 0007.0001) // END OF FIELD                                          =
(PID.TID 0007.0001) // =======================================================
(PID.TID 0007.0001) 
(PID.TID 0007.0001) // =======================================================
(PID.TID 0007.0001) // Field hFacC at iteration          0
(PID.TID 0007.0001) // CMIN =          1.000000000000000E+00
(PID.TID 0007.0001) // CMAX =          1.000000000000000E+00
(PID.TID 0007.0001) // CINT =          0.000000000000000E+00
(PID.TID 0007.0001) // SYMBOLS (CMIN->CMAX): -abcdefghijklmnopqrstuvwxyz+
(PID.TID 0007.0001) //                  0.0: .
(PID.TID 0007.0001) // RANGE I (Lo:Hi:Step):(    68:    83:     1)
(PID.TID 0007.0001) // RANGE J (Lo:Hi:Step):(    43:    -2:    -1)
(PID.TID 0007.0001) // RANGE K (Lo:Hi:Step):(   1:   1:   1)
(PID.TID 0007.0001) // =======================================================
(PID.TID 0007.0001) // =======================================================
(PID.TID 0007.0001) // END OF FIELD                                          =
(PID.TID 0007.0001) // =======================================================
(PID.TID 0007.0001) 
(PID.TID 0007.0001) // =======================================================
(PID.TID 0007.0001) // Field hFacW at iteration          0
(PID.TID 0007.0001) // CMIN =          1.000000000000000E+00
(PID.TID 0007.0001) // CMAX =          1.000000000000000E+00
(PID.TID 0007.0001) // CINT =          0.000000000000000E+00
(PID.TID 0007.0001) // SYMBOLS (CMIN->CMAX): -abcdefghijklmnopqrstuvwxyz+
(PID.TID 0007.0001) //                  0.0: .
(PID.TID 0007.0001) // RANGE I (Lo:Hi:Step):(    68:    83:     1)
(PID.TID 0007.0001) // RANGE J (Lo:Hi:Step):(    43:    -2:    -1)
(PID.TID 0007.0001) // RANGE K (Lo:Hi:Step):(   1:   1:   1)
(PID.TID 0007.0001) // =======================================================
(PID.TID 0007.0001) // =======================================================
(PID.TID 0007.0001) // END OF FIELD                                          =
(PID.TID 0007.0001) // =======================================================
(PID.TID 0007.0001) 
(PID.TID 0007.0001) // =======================================================
(PID.TID 0007.0001) // Field hFacS at iteration          0
(PID.TID 0007.0001) // CMIN =          1.000000000000000E+00
(PID.TID 0007.0001) // CMAX =          1.000000000000000E+00
(PID.TID 0007.0001) // CINT =          0.000000000000000E+00
(PID.TID 0007.0001) // SYMBOLS (CMIN->CMAX): -abcdefghijklmnopqrstuvwxyz+
(PID.TID 0007.0001) //                  0.0: .
(PID.TID 0007.0001) // RANGE I (Lo:Hi:Step):(    68:    83:     1)
(PID.TID 0007.0001) // RANGE J (Lo:Hi:Step):(    43:    -2:    -1)
(PID.TID 0007.0001) // RANGE K (Lo:Hi:Step):(   1:   1:   1)
(PID.TID 0007.0001) // =======================================================
(PID.TID 0007.0001) // =======================================================
(PID.TID 0007.0001) // END OF FIELD                                          =
(PID.TID 0007.0001) // =======================================================
(PID.TID 0007.0001) 
(PID.TID 0007.0001) DEBUG_MSG: CALLING S/R PACKAGES_INIT_FIXED
(PID.TID 0007.0001) DEBUG_MSG: ENTERED S/R PACKAGES_INIT_FIXED
(PID.TID 0007.0001) DEBUG_MSG: CALLING S/R DIAGNOSTICS_INIT_EARLY
(PID.TID 0007.0001) DEBUG_MSG: CALLING S/R DIAGNOSTICS_MAIN_INIT
(PID.TID 0007.0001) DEBUG_MSG: CALLING S/R GAD_INIT_FIXED
(PID.TID 0007.0001) GAD_INIT_FIXED: GAD_OlMinSize=  1  0  1
(PID.TID 0007.0001) 
(PID.TID 0007.0001) // ===================================
(PID.TID 0007.0001) // GAD parameters :
(PID.TID 0007.0001) // ===================================
(PID.TID 0007.0001) tempAdvScheme =   /* Temp. Horiz.Advection scheme selector */
(PID.TID 0007.0001)                       2
(PID.TID 0007.0001)     ;
(PID.TID 0007.0001) tempVertAdvScheme =   /* Temp. Vert. Advection scheme selector */
(PID.TID 0007.0001)                       2
(PID.TID 0007.0001)     ;
(PID.TID 0007.0001) tempMultiDimAdvec =   /* use Muti-Dim Advec method for Temp */
(PID.TID 0007.0001)                   F
(PID.TID 0007.0001)     ;
(PID.TID 0007.0001) tempSOM_Advection = /* use 2nd Order Moment Advection for Temp */
(PID.TID 0007.0001)                   F
(PID.TID 0007.0001)     ;
(PID.TID 0007.0001) AdamsBashforthGt = /* apply Adams-Bashforth extrapolation on Gt */
(PID.TID 0007.0001)                   T
(PID.TID 0007.0001)     ;
(PID.TID 0007.0001) AdamsBashforth_T = /* apply Adams-Bashforth extrapolation on Temp */
(PID.TID 0007.0001)                   F
(PID.TID 0007.0001)     ;
(PID.TID 0007.0001) temp_stayPositive = /* use Smolarkiewicz Hack for Temperature */
(PID.TID 0007.0001)                   F
(PID.TID 0007.0001)     ;
(PID.TID 0007.0001) saltAdvScheme =   /* Salt. Horiz.advection scheme selector */
(PID.TID 0007.0001)                       2
(PID.TID 0007.0001)     ;
(PID.TID 0007.0001) saltVertAdvScheme =   /* Salt. Vert. Advection scheme selector */
(PID.TID 0007.0001)                       2
(PID.TID 0007.0001)     ;
(PID.TID 0007.0001) saltMultiDimAdvec =   /* use Muti-Dim Advec method for Salt */
(PID.TID 0007.0001)                   F
(PID.TID 0007.0001)     ;
(PID.TID 0007.0001) saltSOM_Advection = /* use 2nd Order Moment Advection for Salt */
(PID.TID 0007.0001)                   F
(PID.TID 0007.0001)     ;
(PID.TID 0007.0001) AdamsBashforthGs = /* apply Adams-Bashforth extrapolation on Gs */
(PID.TID 0007.0001)                   T
(PID.TID 0007.0001)     ;
(PID.TID 0007.0001) AdamsBashforth_S = /* apply Adams-Bashforth extrapolation on Salt */
(PID.TID 0007.0001)                   F
(PID.TID 0007.0001)     ;
(PID.TID 0007.0001) salt_stayPositive = /* use Smolarkiewicz Hack for Salinity */
(PID.TID 0007.0001)                   F
(PID.TID 0007.0001)     ;
(PID.TID 0007.0001) SmolarkiewiczMaxFrac = /* maximal fraction of tracer to flow out of a cell */
(PID.TID 0007.0001)                 1.000000000000000E+00
(PID.TID 0007.0001)     ;
(PID.TID 0007.0001) // ===================================
(PID.TID 0007.0001) DEBUG_MSG: CALLING S/R MOM_INIT_FIXED
(PID.TID 0007.0001) DEBUG_MSG: CALLING S/R CD_CODE_INIT_FIXED
(PID.TID 0007.0001) DEBUG_MSG: CALLING S/R GMREDI_INIT_FIXED
(PID.TID 0007.0001) DEBUG_MSG: CALLING S/R DIAGNOSTICS_INIT_FIXED
 April Shin myThid value in init_fixed:            1
(PID.TID 0007.0001) ------------------------------------------------------------
(PID.TID 0007.0001) DIAGNOSTICS_SET_LEVELS: done
(PID.TID 0007.0001)  Total Nb of available Diagnostics: ndiagt=   216
(PID.TID 0007.0001) SETDIAG: Allocate  1 x  1 Levels for Diagnostic #    23 ETAN
(PID.TID 0007.0001) SETDIAG: Allocate  1 x  1 Levels for Diagnostic #    24 ETANSQ
(PID.TID 0007.0001) SETDIAG: Allocate  1 x  1 Levels for Diagnostic #    25 DETADT2
(PID.TID 0007.0001) SETDIAG: Allocate  1 x  1 Levels for Diagnostic #    73 PHIBOT
(PID.TID 0007.0001) SETDIAG: Allocate  1 x  1 Levels for Diagnostic #    74 PHIBOTSQ
(PID.TID 0007.0001) SETDIAG: Allocate 15 x  1 Levels for Diagnostic #    45 UVELMASS
(PID.TID 0007.0001) SETDIAG: Allocate 15 x  1 Levels for Diagnostic #    46 VVELMASS
(PID.TID 0007.0001) SETDIAG: Allocate 15 x  1 Levels for Diagnostic #    32 WVEL
(PID.TID 0007.0001) SETDIAG: Allocate 15 x  1 Levels for Diagnostic #    26 THETA
(PID.TID 0007.0001) SETDIAG: Allocate 15 x  1 Levels for Diagnostic #    27 SALT
(PID.TID 0007.0001) SETDIAG: Allocate 15 x  1 Levels for Diagnostic #    38 WVELSQ
(PID.TID 0007.0001) SETDIAG: Allocate 15 x  1 Levels for Diagnostic #    64 RHOAnoma
(PID.TID 0007.0001) SETDIAG: Allocate 15 x  1 Levels for Diagnostic #    78 DRHODR
(PID.TID 0007.0001) SETDIAG: Allocate 15 x  1 Levels for Diagnostic #    79 CONVADJ
(PID.TID 0007.0001) SETDIAG: Allocate 15 x  1 Levels for Diagnostic #   205 GM_Kwx
(PID.TID 0007.0001) SETDIAG: Allocate 15 x  1 Levels for Diagnostic #   206 GM_Kwy
(PID.TID 0007.0001) SETDIAG: Allocate 15 x  1 Levels for Diagnostic #   207 GM_Kwz
(PID.TID 0007.0001)   space allocated for all diagnostics:     185 levels
(PID.TID 0007.0001)   set mate pointer for diag #    45  UVELMASS , Parms: UUr     MR , mate:    46
(PID.TID 0007.0001)   set mate pointer for diag #    46  VVELMASS , Parms: VVr     MR , mate:    45
(PID.TID 0007.0001)   set mate pointer for diag #   205  GM_Kwx   , Parms: UM      LR , mate:   206
(PID.TID 0007.0001)   set mate pointer for diag #   206  GM_Kwy   , Parms: VM      LR , mate:   205
(PID.TID 0007.0001) DIAGNOSTICS_SET_POINTERS: Set levels for Outp.Stream: surfDiag
(PID.TID 0007.0001)  Levels:       1.
(PID.TID 0007.0001) DIAGNOSTICS_SET_POINTERS: Set levels for Outp.Stream: dynDiag
(PID.TID 0007.0001)  Levels:       1.   2.   3.   4.   5.   6.   7.   8.   9.  10.  11.  12.  13.  14.  15.
(PID.TID 0007.0001) DIAGNOSTICS_SET_POINTERS: Set levels for Outp.Stream: oceDiag
(PID.TID 0007.0001)  Levels:       1.   2.   3.   4.   5.   6.   7.   8.   9.  10.  11.  12.  13.  14.  15.
(PID.TID 0007.0001) DIAGNOSTICS_SET_POINTERS: done
(PID.TID 0007.0001) ------------------------------------------------------------
(PID.TID 0007.0001) DIAGSTATS_SET_REGIONS: define no region
(PID.TID 0007.0001) ------------------------------------------------------------
(PID.TID 0007.0001) SETDIAG: Allocate  1 Levels for Stats-Diag #    23 ETAN
(PID.TID 0007.0001) SETDIAG: Allocate  1 Levels for Stats-Diag #    24 ETANSQ
(PID.TID 0007.0001) SETDIAG: Allocate  1 Levels for Stats-Diag #    25 DETADT2
(PID.TID 0007.0001) SETDIAG: Allocate 15 Levels for Stats-Diag #    30 UVEL
(PID.TID 0007.0001) SETDIAG: Allocate 15 Levels for Stats-Diag #    31 VVEL
(PID.TID 0007.0001) SETDIAG: Allocate 15 Levels for Stats-Diag #    32 WVEL
(PID.TID 0007.0001) SETDIAG: Allocate 15 Levels for Stats-Diag #    26 THETA
(PID.TID 0007.0001) SETDIAG: Allocate 15 Levels for Stats-Diag #    27 SALT
(PID.TID 0007.0001) SETDIAG: Allocate 15 Levels for Stats-Diag #    38 WVELSQ
(PID.TID 0007.0001) SETDIAG: Allocate 15 Levels for Stats-Diag #    64 RHOAnoma
(PID.TID 0007.0001) SETDIAG: Allocate 15 Levels for Stats-Diag #    78 DRHODR
(PID.TID 0007.0001) SETDIAG: Allocate 15 Levels for Stats-Diag #    79 CONVADJ
(PID.TID 0007.0001)   space allocated for all stats-diags:     138 levels
(PID.TID 0007.0001) DIAGSTATS_SET_POINTERS: done
(PID.TID 0007.0001) ------------------------------------------------------------
 April Shin: ob_subMask indices:          -2          13          -2          43
 April Shin ob_subMask shape:           16          46           1           1
 April Shin file name: bathymetry.bin                          
(PID.TID 0007.0001)  MDS_READ_FIELD: opening global file: bathymetry.bin
 obsubMask at -2:    0.0000000000000000     
(PID.TID 0007.0001) // =======================================================
(PID.TID 0007.0001) // Field April Shin Submask
(PID.TID 0007.0001) // CMIN =         -5.200000000000000E+03
(PID.TID 0007.0001) // CMAX =         -1.200000000000000E+02
(PID.TID 0007.0001) // CINT =          1.881481481481482E+02
(PID.TID 0007.0001) // SYMBOLS (CMIN->CMAX): -abcdefghijklmnopqrstuvwxyz+
(PID.TID 0007.0001) //                  0.0: .
(PID.TID 0007.0001) // RANGE I (Lo:Hi:Step):(    68:    83:     1)
(PID.TID 0007.0001) // RANGE J (Lo:Hi:Step):(    43:    -2:    -1)
(PID.TID 0007.0001) // RANGE K (Lo:Hi:Step):(   1:   1:   1)
(PID.TID 0007.0001) // =======================================================
(PID.TID 0007.0001) K =   1
(PID.TID 0007.0001) //                I=77
(PID.TID 0007.0001) // |--J--|890123456|890123
(PID.TID 0007.0001) //     43 ghjkzz..yqjgeddc
(PID.TID 0007.0001) //     42 zyy.....yyyyoiii
(PID.TID 0007.0001) //     41 ................
(PID.TID 0007.0001) //     40 ................
(PID.TID 0007.0001) //     39 .....yxxz.......
(PID.TID 0007.0001) //     38 .....zxxy+......
(PID.TID 0007.0001) //     37 ..++...zy+...ztt
(PID.TID 0007.0001) //     36 +++++++znmm.zoow
(PID.TID 0007.0001) //     35 +++....+nmiijlso
(PID.TID 0007.0001) //     34 ........+nihhikk
(PID.TID 0007.0001) //     33 .........zqvddfl
(PID.TID 0007.0001) //     32 ........+++gdffk
(PID.TID 0007.0001) //     31 ......qbaafccdhq
(PID.TID 0007.0001) //     30 ....zfbb--fbcdos
(PID.TID 0007.0001) //     29 ....eaac--abfmij
(PID.TID 0007.0001) //     28 ...qbaa---aemfbb
(PID.TID 0007.0001) //     27 +y.qb-----akfa--
(PID.TID 0007.0001) //     26 xssuy-----bgca--
(PID.TID 0007.0001) //     25 .ssum+xaaacjbaab
(PID.TID 0007.0001) //     24 u.zummwwbbchba--
(PID.TID 0007.0001) //     23 iq....zykccefa--
(PID.TID 0007.0001) //     22 iqq......xeeehhe
(PID.TID 0007.0001) //     21 qoo........ieefl
(PID.TID 0007.0001) //     20 ijl.........nhfa
(PID.TID 0007.0001) //     19 fff...........d-
(PID.TID 0007.0001) //     18 fdd+..........d-
(PID.TID 0007.0001) //     17 eddj.........hd-
(PID.TID 0007.0001) //     16 eddjf........re-
(PID.TID 0007.0001) //     15 eejfff......+fd-
(PID.TID 0007.0001) //     14 jiffff.....zlfda
(PID.TID 0007.0001) //     13 igfffq....+jgfod
(PID.TID 0007.0001) //     12 hggff.....kbbbdf
(PID.TID 0007.0001) //     11 iggff....l---abc
(PID.TID 0007.0001) //     10 gijgi..+w--aa-ab
(PID.TID 0007.0001) //      9 efglv.++w-----ab
(PID.TID 0007.0001) //      8 bdeg+.++xffn--cf
(PID.TID 0007.0001) //      7 aabedfiiiiiisvkf
(PID.TID 0007.0001) //      6 aabbdfiiiiispmmr
(PID.TID 0007.0001) //      5 abbbdfiijsqgeccc
(PID.TID 0007.0001) //      4 ccefhmz..yjgeccc
(PID.TID 0007.0001) //      3 ghjkzz..yqjgeddc
(PID.TID 0007.0001) //      2 zyy.....yyyyoiii
(PID.TID 0007.0001) //      1 ................
(PID.TID 0007.0001) //      0 ................
(PID.TID 0007.0001) //     -1 .....yxxz.......
(PID.TID 0007.0001) //     -2 .....zxxy+......
(PID.TID 0007.0001) // =======================================================
(PID.TID 0007.0001) // END OF FIELD                                          =
(PID.TID 0007.0001) // =======================================================
(PID.TID 0007.0001) 
 April Shin MPI Process ID:            7
 April Shin MPI total num procs:            9
 April Shin myThid:            1
(PID.TID 0007.0001) DEBUG_MSG: LEAVING S/R PACKAGES_INIT_FIXED
(PID.TID 0007.0001) DEBUG_MSG: CALLING S/R INI_GLOBAL_DOMAIN
(PID.TID 0007.0001) DEBUG_MSG: CALLING S/R INI_LINEAR_PHISURF
(PID.TID 0007.0001) DEBUG_MSG: CALLING S/R INI_CORI
(PID.TID 0007.0001) %MON fCori_max                    =   1.4265546244797E-04
(PID.TID 0007.0001) %MON fCori_min                    =  -1.4265546244797E-04
(PID.TID 0007.0001) %MON fCori_mean                   =   1.8973538018496E-21
(PID.TID 0007.0001) %MON fCori_sd                     =   9.6599226301547E-05
(PID.TID 0007.0001) %MON fCoriG_max                   =   1.4151032568025E-04
(PID.TID 0007.0001) %MON fCoriG_min                   =  -1.4362679550910E-04
(PID.TID 0007.0001) %MON fCoriG_mean                  =  -3.5906698877274E-06
(PID.TID 0007.0001) %MON fCoriG_sd                    =   9.6548915696246E-05
(PID.TID 0007.0001) %MON fCoriCos_max                 =   1.4575362704741E-04
(PID.TID 0007.0001) %MON fCoriCos_min                 =   3.0322354601388E-05
(PID.TID 0007.0001) %MON fCoriCos_mean                =   1.0288600773633E-04
(PID.TID 0007.0001) %MON fCoriCos_sd                  =   3.6784304327266E-05
(PID.TID 0007.0001) DEBUG_MSG: CALLING S/R INI_CG2D
(PID.TID 0007.0001) INI_CG2D: CG2D normalisation factor =  6.5682677425711703E-05
(PID.TID 0007.0001) 
(PID.TID 0007.0001) DEBUG_MSG: CALLING S/R CONFIG_SUMMARY
(PID.TID 0007.0001) // =======================================================
(PID.TID 0007.0001) // Model configuration
(PID.TID 0007.0001) // =======================================================
(PID.TID 0007.0001) //
(PID.TID 0007.0001) // "Physical" paramters ( PARM01 in namelist )
(PID.TID 0007.0001) //
(PID.TID 0007.0001) buoyancyRelation = /* Type of relation to get Buoyancy */
(PID.TID 0007.0001)               'OCEANIC'
(PID.TID 0007.0001)     ;
(PID.TID 0007.0001) fluidIsAir   =  /* fluid major constituent is Air */
(PID.TID 0007.0001)                   F
(PID.TID 0007.0001)     ;
(PID.TID 0007.0001) fluidIsWater =  /* fluid major constituent is Water */
(PID.TID 0007.0001)                   T
(PID.TID 0007.0001)     ;
(PID.TID 0007.0001) usingPCoords =  /* use p (or p*) vertical coordinate */
(PID.TID 0007.0001)                   F
(PID.TID 0007.0001)     ;
(PID.TID 0007.0001) usingZCoords =  /* use z (or z*) vertical coordinate */
(PID.TID 0007.0001)                   T
(PID.TID 0007.0001)     ;
(PID.TID 0007.0001) tRef =   /* Reference temperature profile ( oC or K ) */
(PID.TID 0007.0001)    15 @  2.000000000000000E+01              /* K =  1: 15 */
(PID.TID 0007.0001)     ;
(PID.TID 0007.0001) sRef =   /* Reference salinity profile ( psu ) */
(PID.TID 0007.0001)    15 @  3.500000000000000E+01              /* K =  1: 15 */
(PID.TID 0007.0001)     ;
(PID.TID 0007.0001) useStrainTensionVisc= /* Use StrainTension Form of Viscous Operator */
(PID.TID 0007.0001)                   F
(PID.TID 0007.0001)     ;
(PID.TID 0007.0001) useVariableVisc = /* Use variable horizontal viscosity */
(PID.TID 0007.0001)                   F
(PID.TID 0007.0001)     ;
(PID.TID 0007.0001) useHarmonicVisc = /* Use harmonic horizontal viscosity */
(PID.TID 0007.0001)                   T
(PID.TID 0007.0001)     ;
(PID.TID 0007.0001) useBiharmonicVisc= /* Use biharmonic horiz.  viscosity */
(PID.TID 0007.0001)                   T
(PID.TID 0007.0001)     ;
(PID.TID 0007.0001) useSmag3D = /* Use isotropic 3-D Smagorinsky viscosity */
(PID.TID 0007.0001)                   F
(PID.TID 0007.0001)     ;
(PID.TID 0007.0001) viscAh  =   /* Lateral harmonic viscosity ( m^2/s ) */
(PID.TID 0007.0001)                 5.000000000000000E+05
(PID.TID 0007.0001)     ;
(PID.TID 0007.0001) viscA4  =   /* Lateral biharmonic viscosity ( m^4/s ) */
(PID.TID 0007.0001)                 1.000000000000000E+14
(PID.TID 0007.0001)     ;
(PID.TID 0007.0001) no_slip_sides =  /* Viscous BCs: No-slip sides */
(PID.TID 0007.0001)                   T
(PID.TID 0007.0001)     ;
(PID.TID 0007.0001) sideDragFactor = /* side-drag scaling factor (non-dim) */
(PID.TID 0007.0001)                 2.000000000000000E+00
(PID.TID 0007.0001)     ;
(PID.TID 0007.0001) viscArNr = /* vertical profile of vertical viscosity ( m^2/s )*/
(PID.TID 0007.0001)    15 @  1.000000000000000E-03              /* K =  1: 15 */
(PID.TID 0007.0001)     ;
(PID.TID 0007.0001) no_slip_bottom =  /* Viscous BCs: No-slip bottom */
(PID.TID 0007.0001)                   T
(PID.TID 0007.0001)     ;
(PID.TID 0007.0001) bottomVisc_pCell = /* Partial-cell in bottom Visc. BC */
(PID.TID 0007.0001)                   F
(PID.TID 0007.0001)     ;
(PID.TID 0007.0001) bottomDragLinear = /* linear bottom-drag coefficient ( m/s ) */
(PID.TID 0007.0001)                 0.000000000000000E+00
(PID.TID 0007.0001)     ;
(PID.TID 0007.0001) bottomDragQuadratic = /* quadratic bottom-drag coefficient (-) */
(PID.TID 0007.0001)                 0.000000000000000E+00
(PID.TID 0007.0001)     ;
(PID.TID 0007.0001) selectBotDragQuadr = /* select quadratic bottom drag options */
(PID.TID 0007.0001)                      -1
(PID.TID 0007.0001)     ;
(PID.TID 0007.0001) diffKhT =   /* Laplacian diffusion of heat laterally ( m^2/s ) */
(PID.TID 0007.0001)                 0.000000000000000E+00
(PID.TID 0007.0001)     ;
(PID.TID 0007.0001) diffK4T =   /* Biharmonic diffusion of heat laterally ( m^4/s ) */
(PID.TID 0007.0001)                 0.000000000000000E+00
(PID.TID 0007.0001)     ;
(PID.TID 0007.0001) diffKhS =   /* Laplacian diffusion of salt laterally ( m^2/s ) */
(PID.TID 0007.0001)                 0.000000000000000E+00
(PID.TID 0007.0001)     ;
(PID.TID 0007.0001) diffK4S =   /* Biharmonic diffusion of salt laterally ( m^4/s ) */
(PID.TID 0007.0001)                 0.000000000000000E+00
(PID.TID 0007.0001)     ;
(PID.TID 0007.0001) diffKrNrT = /* vertical profile of vertical diffusion of Temp ( m^2/s )*/
(PID.TID 0007.0001)    15 @  3.000000000000000E-05              /* K =  1: 15 */
(PID.TID 0007.0001)     ;
(PID.TID 0007.0001) diffKrNrS = /* vertical profile of vertical diffusion of Salt ( m^2/s )*/
(PID.TID 0007.0001)    15 @  3.000000000000000E-05              /* K =  1: 15 */
(PID.TID 0007.0001)     ;
(PID.TID 0007.0001) diffKrBL79surf = /* Surface diffusion for Bryan and Lewis 79 ( m^2/s ) */
(PID.TID 0007.0001)                 0.000000000000000E+00
(PID.TID 0007.0001)     ;
(PID.TID 0007.0001) diffKrBL79deep = /* Deep diffusion for Bryan and Lewis 1979 ( m^2/s ) */
(PID.TID 0007.0001)                 0.000000000000000E+00
(PID.TID 0007.0001)     ;
(PID.TID 0007.0001) diffKrBL79scl = /* Depth scale for Bryan and Lewis 1979 ( m ) */
(PID.TID 0007.0001)                 2.000000000000000E+02
(PID.TID 0007.0001)     ;
(PID.TID 0007.0001) diffKrBL79Ho = /* Turning depth for Bryan and Lewis 1979 ( m ) */
(PID.TID 0007.0001)                -2.000000000000000E+03
(PID.TID 0007.0001)     ;
(PID.TID 0007.0001) ivdc_kappa = /* Implicit Vertical Diffusivity for Convection ( m^2/s) */
(PID.TID 0007.0001)                 1.000000000000000E+01
(PID.TID 0007.0001)     ;
(PID.TID 0007.0001) hMixCriteria=  /* Criteria for mixed-layer diagnostic */
(PID.TID 0007.0001)                -8.000000000000000E-01
(PID.TID 0007.0001)     ;
(PID.TID 0007.0001) dRhoSmall =  /* Parameter for mixed-layer diagnostic */
(PID.TID 0007.0001)                 1.000000000000000E-06
(PID.TID 0007.0001)     ;
(PID.TID 0007.0001) hMixSmooth=  /* Smoothing parameter for mixed-layer diagnostic */
(PID.TID 0007.0001)                 0.000000000000000E+00
(PID.TID 0007.0001)     ;
(PID.TID 0007.0001) eosType =  /* Type of Equation of State */
(PID.TID 0007.0001)               'JMD95P'
(PID.TID 0007.0001)     ;
(PID.TID 0007.0001) eosRefP0 = /* Reference atmospheric pressure for EOS ( Pa ) */
(PID.TID 0007.0001)                 1.013250000000000E+05
(PID.TID 0007.0001)     ;
(PID.TID 0007.0001) selectP_inEOS_Zc = /* select pressure to use in EOS (0,1,2,3) */
(PID.TID 0007.0001)                       2
(PID.TID 0007.0001)     0= -g*rhoConst*z ; 1= pRef (from tRef,sRef); 2= Hyd P ; 3= Hyd+NH P
(PID.TID 0007.0001)     ;
(PID.TID 0007.0001) surf_pRef = /* Surface reference pressure ( Pa ) */
(PID.TID 0007.0001)                 1.013250000000000E+05
(PID.TID 0007.0001)     ;
(PID.TID 0007.0001) HeatCapacity_Cp =  /* Specific heat capacity ( J/kg/K ) */
(PID.TID 0007.0001)                 3.994000000000000E+03
(PID.TID 0007.0001)     ;
(PID.TID 0007.0001) celsius2K = /* 0 degree Celsius converted to Kelvin ( K ) */
(PID.TID 0007.0001)                 2.731500000000000E+02
(PID.TID 0007.0001)     ;
(PID.TID 0007.0001) rhoConst  = /* Reference density (Boussinesq)  ( kg/m^3 ) */
(PID.TID 0007.0001)                 1.035000000000000E+03
(PID.TID 0007.0001)     ;
(PID.TID 0007.0001) rhoFacC = /* normalized Reference density @ cell-Center (-) */
(PID.TID 0007.0001)    15 @  1.000000000000000E+00              /* K =  1: 15 */
(PID.TID 0007.0001)     ;
(PID.TID 0007.0001) rhoFacF = /* normalized Reference density @ W-Interface (-) */
(PID.TID 0007.0001)    16 @  1.000000000000000E+00              /* K =  1: 16 */
(PID.TID 0007.0001)     ;
(PID.TID 0007.0001) rhoConstFresh = /* Fresh-water reference density ( kg/m^3 ) */
(PID.TID 0007.0001)                 1.000000000000000E+03
(PID.TID 0007.0001)     ;
(PID.TID 0007.0001) gravity =   /* Gravitational acceleration ( m/s^2 ) */
(PID.TID 0007.0001)                 9.810000000000000E+00
(PID.TID 0007.0001)     ;
(PID.TID 0007.0001) gBaro =   /* Barotropic gravity ( m/s^2 ) */
(PID.TID 0007.0001)                 9.810000000000000E+00
(PID.TID 0007.0001)     ;
(PID.TID 0007.0001) gravFacC = /* gravity factor (vs surf.) @ cell-Center (-) */
(PID.TID 0007.0001)    15 @  1.000000000000000E+00              /* K =  1: 15 */
(PID.TID 0007.0001)     ;
(PID.TID 0007.0001) gravFacF = /* gravity factor (vs surf.) @ W-Interface (-) */
(PID.TID 0007.0001)    16 @  1.000000000000000E+00              /* K =  1: 16 */
(PID.TID 0007.0001)     ;
(PID.TID 0007.0001) rotationPeriod =   /* Rotation Period ( s ) */
(PID.TID 0007.0001)                 8.616400000000000E+04
(PID.TID 0007.0001)     ;
(PID.TID 0007.0001) omega =   /* Angular velocity ( rad/s ) */
(PID.TID 0007.0001)                 7.292123516990375E-05
(PID.TID 0007.0001)     ;
(PID.TID 0007.0001) f0 =   /* Reference coriolis parameter ( 1/s ) */
(PID.TID 0007.0001)                 1.000000000000000E-04
(PID.TID 0007.0001)     ;
(PID.TID 0007.0001) beta =   /* Beta ( 1/(m.s) ) */
(PID.TID 0007.0001)                 9.999999999999999E-12
(PID.TID 0007.0001)     ;
(PID.TID 0007.0001) fPrime =   /* Second coriolis parameter ( 1/s ) */
(PID.TID 0007.0001)                 0.000000000000000E+00
(PID.TID 0007.0001)     ;
(PID.TID 0007.0001) rigidLid =   /* Rigid lid on/off flag */
(PID.TID 0007.0001)                   F
(PID.TID 0007.0001)     ;
(PID.TID 0007.0001) implicitFreeSurface =   /* Implicit free surface on/off flag */
(PID.TID 0007.0001)                   T
(PID.TID 0007.0001)     ;
(PID.TID 0007.0001) freeSurfFac =   /* Implicit free surface factor */
(PID.TID 0007.0001)                 1.000000000000000E+00
(PID.TID 0007.0001)     ;
(PID.TID 0007.0001) implicSurfPress =  /* Surface Pressure implicit factor (0-1)*/
(PID.TID 0007.0001)                 1.000000000000000E+00
(PID.TID 0007.0001)     ;
(PID.TID 0007.0001) implicDiv2DFlow =  /* Barot. Flow Div. implicit factor (0-1)*/
(PID.TID 0007.0001)                 1.000000000000000E+00
(PID.TID 0007.0001)     ;
(PID.TID 0007.0001) uniformLin_PhiSurf = /* use uniform Bo_surf on/off flag*/
(PID.TID 0007.0001)                   T
(PID.TID 0007.0001)     ;
(PID.TID 0007.0001) uniformFreeSurfLev = /* free-surface level-index is uniform */
(PID.TID 0007.0001)                   T
(PID.TID 0007.0001)     ;
(PID.TID 0007.0001) hFacMin =   /* minimum partial cell factor (hFac) */
(PID.TID 0007.0001)                 5.000000000000000E-02
(PID.TID 0007.0001)     ;
(PID.TID 0007.0001) hFacMinDr = /* minimum partial cell thickness ( m) */
(PID.TID 0007.0001)                 5.000000000000000E+01
(PID.TID 0007.0001)     ;
(PID.TID 0007.0001) exactConserv =  /* Exact Volume Conservation on/off flag*/
(PID.TID 0007.0001)                   T
(PID.TID 0007.0001)     ;
(PID.TID 0007.0001) linFSConserveTr = /* Tracer correction for Lin Free Surface on/off flag*/
(PID.TID 0007.0001)                   F
(PID.TID 0007.0001)     ;
(PID.TID 0007.0001) nonlinFreeSurf = /* Non-linear Free Surf. options (-1,0,1,2,3)*/
(PID.TID 0007.0001)                       4
(PID.TID 0007.0001)      -1,0= Off ; 1,2,3= On, 2=+rescale gU,gV, 3=+update cg2d solv.
(PID.TID 0007.0001)     ;
(PID.TID 0007.0001) hFacInf =   /* lower threshold for hFac (nonlinFreeSurf only)*/
(PID.TID 0007.0001)                 2.000000000000000E-01
(PID.TID 0007.0001)     ;
(PID.TID 0007.0001) hFacSup =   /* upper threshold for hFac (nonlinFreeSurf only)*/
(PID.TID 0007.0001)                 2.000000000000000E+00
(PID.TID 0007.0001)     ;
(PID.TID 0007.0001) select_rStar = /* r* Vertical coord. options (=0 r coord.; >0 uses r*)*/
(PID.TID 0007.0001)                       2
(PID.TID 0007.0001)     ;
(PID.TID 0007.0001) useRealFreshWaterFlux = /* Real Fresh Water Flux on/off flag*/
(PID.TID 0007.0001)                   T
(PID.TID 0007.0001)     ;
(PID.TID 0007.0001) temp_EvPrRn = /* Temp. of Evap/Prec/R (UNSET=use local T)(oC)*/
(PID.TID 0007.0001)                 1.234567000000000E+05
(PID.TID 0007.0001)     ;
(PID.TID 0007.0001) salt_EvPrRn = /* Salin. of Evap/Prec/R (UNSET=use local S)(psu)*/
(PID.TID 0007.0001)                 0.000000000000000E+00
(PID.TID 0007.0001)     ;
(PID.TID 0007.0001) selectAddFluid = /* option for mass source/sink of fluid (=0: off) */
(PID.TID 0007.0001)                       0
(PID.TID 0007.0001)     ;
(PID.TID 0007.0001) temp_addMass = /* Temp. of addMass array (UNSET=use local T)(oC)*/
(PID.TID 0007.0001)                 1.234567000000000E+05
(PID.TID 0007.0001)     ;
(PID.TID 0007.0001) salt_addMass = /* Salin. of addMass array (UNSET=use local S)(psu)*/
(PID.TID 0007.0001)                 0.000000000000000E+00
(PID.TID 0007.0001)     ;
(PID.TID 0007.0001) use3Dsolver = /* use 3-D pressure solver on/off flag */
(PID.TID 0007.0001)                   F
(PID.TID 0007.0001)     ;
(PID.TID 0007.0001) nonHydrostatic =  /* Non-Hydrostatic on/off flag */
(PID.TID 0007.0001)                   F
(PID.TID 0007.0001)     ;
(PID.TID 0007.0001) nh_Am2 = /* Non-Hydrostatic terms scaling factor */
(PID.TID 0007.0001)                 1.000000000000000E+00
(PID.TID 0007.0001)     ;
(PID.TID 0007.0001) implicitNHPress = /* Non-Hyd Pressure implicit factor (0-1)*/
(PID.TID 0007.0001)                 1.000000000000000E+00
(PID.TID 0007.0001)     ;
(PID.TID 0007.0001) selectNHfreeSurf = /* Non-Hyd (free-)Surface option */
(PID.TID 0007.0001)                       0
(PID.TID 0007.0001)     ;
(PID.TID 0007.0001) quasiHydrostatic = /* Quasi-Hydrostatic on/off flag */
(PID.TID 0007.0001)                   T
(PID.TID 0007.0001)     ;
(PID.TID 0007.0001) calc_wVelocity = /* vertical velocity calculation on/off flag */
(PID.TID 0007.0001)                   T
(PID.TID 0007.0001)     ;
(PID.TID 0007.0001) momStepping =  /* Momentum equation on/off flag */
(PID.TID 0007.0001)                   T
(PID.TID 0007.0001)     ;
(PID.TID 0007.0001) vectorInvariantMomentum= /* Vector-Invariant Momentum on/off */
(PID.TID 0007.0001)                   F
(PID.TID 0007.0001)     ;
(PID.TID 0007.0001) momAdvection =  /* Momentum advection on/off flag */
(PID.TID 0007.0001)                   T
(PID.TID 0007.0001)     ;
(PID.TID 0007.0001) momViscosity =  /* Momentum viscosity on/off flag */
(PID.TID 0007.0001)                   T
(PID.TID 0007.0001)     ;
(PID.TID 0007.0001) momImplVertAdv= /* Momentum implicit vert. advection on/off*/
(PID.TID 0007.0001)                   F
(PID.TID 0007.0001)     ;
(PID.TID 0007.0001) implicitViscosity = /* Implicit viscosity on/off flag */
(PID.TID 0007.0001)                   F
(PID.TID 0007.0001)     ;
(PID.TID 0007.0001) selectImplicitDrag= /* Implicit bot Drag options (0,1,2)*/
(PID.TID 0007.0001)                       0
(PID.TID 0007.0001)     0= Expl. ; 1= Impl. on provis. Vel ; 2= Fully Impl (with surf.P)
(PID.TID 0007.0001)     ;
(PID.TID 0007.0001) metricTerms =  /* metric-Terms on/off flag */
(PID.TID 0007.0001)                   T
(PID.TID 0007.0001)     ;
(PID.TID 0007.0001) useNHMTerms = /* Non-Hydrostatic Metric-Terms on/off */
(PID.TID 0007.0001)                   T
(PID.TID 0007.0001)     ;
(PID.TID 0007.0001) selectCoriMap = /* Coriolis Map options (0,1,2,3)*/
(PID.TID 0007.0001)                       2
(PID.TID 0007.0001)     0= f-Plane ; 1= Beta-Plane ; 2= Spherical ; 3= read from file
(PID.TID 0007.0001)     ;
(PID.TID 0007.0001) use3dCoriolis = /* 3-D Coriolis on/off flag */
(PID.TID 0007.0001)                   T
(PID.TID 0007.0001)     ;
(PID.TID 0007.0001) useCoriolis =  /* Coriolis on/off flag */
(PID.TID 0007.0001)                   T
(PID.TID 0007.0001)     ;
(PID.TID 0007.0001) useCDscheme =  /* CD scheme on/off flag */
(PID.TID 0007.0001)                   T
(PID.TID 0007.0001)     ;
(PID.TID 0007.0001) selectCoriScheme= /* Scheme selector for Coriolis-Term */
(PID.TID 0007.0001)                       0
(PID.TID 0007.0001)    = 0 : original discretization (simple averaging, no hFac)
(PID.TID 0007.0001)    = 1 : Wet-point averaging (Jamar & Ozer 1986)
(PID.TID 0007.0001)    = 2 : energy conserving scheme (no hFac weight)
(PID.TID 0007.0001)    = 3 : energy conserving scheme using Wet-point averaging
(PID.TID 0007.0001)     ;
(PID.TID 0007.0001) momForcing =  /* Momentum forcing on/off flag */
(PID.TID 0007.0001)                   T
(PID.TID 0007.0001)     ;
(PID.TID 0007.0001) momTidalForcing = /* Momentum Tidal forcing on/off flag */
(PID.TID 0007.0001)                   T
(PID.TID 0007.0001)     ;
(PID.TID 0007.0001) momPressureForcing =  /* Momentum pressure term on/off flag */
(PID.TID 0007.0001)                   T
(PID.TID 0007.0001)     ;
(PID.TID 0007.0001) implicitIntGravWave= /* Implicit Internal Gravity Wave flag */
(PID.TID 0007.0001)                   F
(PID.TID 0007.0001)     ;
(PID.TID 0007.0001) staggerTimeStep =    /* Stagger time stepping on/off flag */
(PID.TID 0007.0001)                   F
(PID.TID 0007.0001)     ;
(PID.TID 0007.0001) doResetHFactors = /* reset thickness factors @ each time-step */
(PID.TID 0007.0001)                   T
(PID.TID 0007.0001)     ;
(PID.TID 0007.0001) multiDimAdvection =  /* enable/disable Multi-Dim Advection */
(PID.TID 0007.0001)                   T
(PID.TID 0007.0001)     ;
(PID.TID 0007.0001) useMultiDimAdvec =   /* Multi-Dim Advection is/is-not used */
(PID.TID 0007.0001)                   F
(PID.TID 0007.0001)     ;
(PID.TID 0007.0001) implicitDiffusion = /* Implicit Diffusion on/off flag */
(PID.TID 0007.0001)                   T
(PID.TID 0007.0001)     ;
(PID.TID 0007.0001) tempStepping =  /* Temperature equation on/off flag */
(PID.TID 0007.0001)                   T
(PID.TID 0007.0001)     ;
(PID.TID 0007.0001) tempAdvection = /* Temperature advection on/off flag */
(PID.TID 0007.0001)                   T
(PID.TID 0007.0001)     ;
(PID.TID 0007.0001) tempImplVertAdv = /* Temp. implicit vert. advection on/off */
(PID.TID 0007.0001)                   F
(PID.TID 0007.0001)     ;
(PID.TID 0007.0001) tempForcing  =  /* Temperature forcing on/off flag */
(PID.TID 0007.0001)                   T
(PID.TID 0007.0001)     ;
(PID.TID 0007.0001) doThetaClimRelax = /* apply SST relaxation on/off flag */
(PID.TID 0007.0001)                   T
(PID.TID 0007.0001)     ;
(PID.TID 0007.0001) tempIsActiveTr = /* Temp. is a dynamically Active Tracer */
(PID.TID 0007.0001)                   T
(PID.TID 0007.0001)     ;
(PID.TID 0007.0001) saltStepping =  /* Salinity equation on/off flag */
(PID.TID 0007.0001)                   T
(PID.TID 0007.0001)     ;
(PID.TID 0007.0001) saltAdvection = /* Salinity advection on/off flag */
(PID.TID 0007.0001)                   T
(PID.TID 0007.0001)     ;
(PID.TID 0007.0001) saltImplVertAdv = /* Sali. implicit vert. advection on/off */
(PID.TID 0007.0001)                   F
(PID.TID 0007.0001)     ;
(PID.TID 0007.0001) saltForcing  =  /* Salinity forcing on/off flag */
(PID.TID 0007.0001)                   T
(PID.TID 0007.0001)     ;
(PID.TID 0007.0001) doSaltClimRelax = /* apply SSS relaxation on/off flag */
(PID.TID 0007.0001)                   T
(PID.TID 0007.0001)     ;
(PID.TID 0007.0001) saltIsActiveTr = /* Salt  is a dynamically Active Tracer */
(PID.TID 0007.0001)                   T
(PID.TID 0007.0001)     ;
(PID.TID 0007.0001)  readBinaryPrec = /* Precision used for reading binary files */
(PID.TID 0007.0001)                      32
(PID.TID 0007.0001)     ;
(PID.TID 0007.0001) writeBinaryPrec = /* Precision used for writing binary files */
(PID.TID 0007.0001)                      32
(PID.TID 0007.0001)     ;
(PID.TID 0007.0001)  rwSuffixType =   /* select format of mds file suffix */
(PID.TID 0007.0001)                       0
(PID.TID 0007.0001)    = 0 : myIter (I10.10) ;   = 1 : 100*myTime (100th sec) ;
(PID.TID 0007.0001)    = 2 : myTime (seconds);   = 3 : myTime/360 (10th of hr);
(PID.TID 0007.0001)    = 4 : myTime/3600 (hours)
(PID.TID 0007.0001)     ;
(PID.TID 0007.0001)  globalFiles = /* write "global" (=not per tile) files */
(PID.TID 0007.0001)                   F
(PID.TID 0007.0001)     ;
(PID.TID 0007.0001)  useSingleCpuIO = /* only master MPI process does I/O */
(PID.TID 0007.0001)                   F
(PID.TID 0007.0001)     ;
(PID.TID 0007.0001)  useSingleCpuInput = /* only master process reads input */
(PID.TID 0007.0001)                   F
(PID.TID 0007.0001)     ;
(PID.TID 0007.0001) /* debLev[*]  : level of debug & auxiliary message printing */
(PID.TID 0007.0001) debLevZero =  0 ; /* level of disabled aux. msg printing */
(PID.TID 0007.0001)    debLevA =  1 ; /* level of minimum  aux. msg printing */
(PID.TID 0007.0001)    debLevB =  2 ; /* level of low aux. print (report read-file opening)*/
(PID.TID 0007.0001)    debLevC =  3 ; /* level of moderate debug prt (most pkgs debug msg) */
(PID.TID 0007.0001)    debLevD =  4 ; /* level of enhanced debug prt (add DEBUG_STATS prt) */
(PID.TID 0007.0001)    debLevE =  5 ; /* level of extensive debug printing */
(PID.TID 0007.0001) debugLevel =  /* select debug printing level */
(PID.TID 0007.0001)                      99
(PID.TID 0007.0001)     ;
(PID.TID 0007.0001)  plotLevel =  /* select PLOT_FIELD printing level */
(PID.TID 0007.0001)                      99
(PID.TID 0007.0001)     ;
(PID.TID 0007.0001) //
(PID.TID 0007.0001) // Elliptic solver(s) paramters ( PARM02 in namelist )
(PID.TID 0007.0001) //
(PID.TID 0007.0001) cg2dMaxIters =   /* Upper limit on 2d con. grad iterations  */
(PID.TID 0007.0001)                     500
(PID.TID 0007.0001)     ;
(PID.TID 0007.0001) cg2dChkResFreq =   /* 2d con. grad convergence test frequency */
(PID.TID 0007.0001)                       1
(PID.TID 0007.0001)     ;
(PID.TID 0007.0001) cg2dUseMinResSol= /* use cg2d last-iter(=0) / min-resid.(=1) solution */
(PID.TID 0007.0001)                       0
(PID.TID 0007.0001)     ;
(PID.TID 0007.0001) cg2dTargetResidual =   /* 2d con. grad target residual  */
(PID.TID 0007.0001)                 1.000000000000000E-13
(PID.TID 0007.0001)     ;
(PID.TID 0007.0001) cg2dTargetResWunit =   /* CG2d target residual [W units] */
(PID.TID 0007.0001)                -1.000000000000000E+00
(PID.TID 0007.0001)     ;
(PID.TID 0007.0001) cg2dPreCondFreq =   /* Freq. for updating cg2d preconditioner */
(PID.TID 0007.0001)                       1
(PID.TID 0007.0001)     ;
(PID.TID 0007.0001) useSRCGSolver =  /* use single reduction CG solver(s) */
(PID.TID 0007.0001)                   F
(PID.TID 0007.0001)     ;
(PID.TID 0007.0001) printResidualFreq = /* Freq. for printing CG residual */
(PID.TID 0007.0001)                       1
(PID.TID 0007.0001)     ;
(PID.TID 0007.0001) //
(PID.TID 0007.0001) // Time stepping paramters ( PARM03 in namelist )
(PID.TID 0007.0001) //
(PID.TID 0007.0001) deltaTMom =   /* Momentum equation timestep ( s ) */
(PID.TID 0007.0001)                 1.800000000000000E+03
(PID.TID 0007.0001)     ;
(PID.TID 0007.0001) deltaTFreeSurf = /* FreeSurface equation timestep ( s ) */
(PID.TID 0007.0001)                 8.640000000000000E+04
(PID.TID 0007.0001)     ;
(PID.TID 0007.0001) dTtracerLev =  /* Tracer equation timestep ( s ) */
(PID.TID 0007.0001)    15 @  8.640000000000000E+04              /* K =  1: 15 */
(PID.TID 0007.0001)     ;
(PID.TID 0007.0001) deltaTClock  =   /* Model clock timestep ( s ) */
(PID.TID 0007.0001)                 8.640000000000000E+04
(PID.TID 0007.0001)     ;
(PID.TID 0007.0001) cAdjFreq =   /* Convective adjustment interval ( s ) */
(PID.TID 0007.0001)                 0.000000000000000E+00
(PID.TID 0007.0001)     ;
(PID.TID 0007.0001) momForcingOutAB = /* =1: take Momentum Forcing out of Adams-Bash. stepping */
(PID.TID 0007.0001)                       0
(PID.TID 0007.0001)     ;
(PID.TID 0007.0001) tracForcingOutAB = /* =1: take T,S,pTr Forcing out of Adams-Bash. stepping */
[...]
(PID.TID 0007.0001) %MON dynstat_uvel_del2            =   7.5334132014929E-05
(PID.TID 0007.0001) %MON dynstat_vvel_max             =   1.2233001733216E-01
(PID.TID 0007.0001) %MON dynstat_vvel_min             =  -1.3294093918292E-01
(PID.TID 0007.0001) %MON dynstat_vvel_mean            =   9.8584110344180E-07
(PID.TID 0007.0001) %MON dynstat_vvel_sd              =   6.0781322050252E-03
(PID.TID 0007.0001) %MON dynstat_vvel_del2            =   5.6232643473239E-05
(PID.TID 0007.0001) %MON dynstat_wvel_max             =   2.3552880854407E-05
(PID.TID 0007.0001) %MON dynstat_wvel_min             =  -4.9200483025664E-05
(PID.TID 0007.0001) %MON dynstat_wvel_mean            =   3.5486912832833E-10
(PID.TID 0007.0001) %MON dynstat_wvel_sd              =   1.6815609733776E-06
(PID.TID 0007.0001) %MON dynstat_wvel_del2            =   1.9877971488389E-08
(PID.TID 0007.0001) %MON dynstat_theta_max            =   3.0438770681571E+01
(PID.TID 0007.0001) %MON dynstat_theta_min            =  -2.6410428553460E+00
(PID.TID 0007.0001) %MON dynstat_theta_mean           =   3.9388941899039E+00
(PID.TID 0007.0001) %MON dynstat_theta_sd             =   4.5462175363863E+00
(PID.TID 0007.0001) %MON dynstat_theta_del2           =   5.6695973938334E-03
(PID.TID 0007.0001) %MON dynstat_salt_max             =   3.7497256698927E+01
(PID.TID 0007.0001) %MON dynstat_salt_min             =   2.9581982864141E+01
(PID.TID 0007.0001) %MON dynstat_salt_mean            =   3.4731869446668E+01
(PID.TID 0007.0001) %MON dynstat_salt_sd              =   2.9657800101785E-01
(PID.TID 0007.0001) %MON dynstat_salt_del2            =   1.0362433579159E-03
(PID.TID 0007.0001) %MON dynstat_sst_max              =   3.0438770681571E+01
(PID.TID 0007.0001) %MON dynstat_sst_min              =  -1.9456387738226E+00
(PID.TID 0007.0001) %MON dynstat_sst_mean             =   1.8380990103277E+01
(PID.TID 0007.0001) %MON dynstat_sst_sd               =   9.0072652998309E+00
(PID.TID 0007.0001) %MON dynstat_sst_del2             =   2.7988313577897E-02
(PID.TID 0007.0001) %MON dynstat_sss_max              =   3.7497256698927E+01
(PID.TID 0007.0001) %MON dynstat_sss_min              =   2.9581982864141E+01
(PID.TID 0007.0001) %MON dynstat_sss_mean             =   3.4834946485078E+01
(PID.TID 0007.0001) %MON dynstat_sss_sd               =   9.9601537358129E-01
(PID.TID 0007.0001) %MON dynstat_sss_del2             =   8.0352811092272E-03
(PID.TID 0007.0001) %MON forcing_qnet_max             =   4.2589080810547E+02
(PID.TID 0007.0001) %MON forcing_qnet_min             =  -1.8702698516846E+02
(PID.TID 0007.0001) %MON forcing_qnet_mean            =  -1.6700205338390E+01
(PID.TID 0007.0001) %MON forcing_qnet_sd              =   1.1285666794876E+02
(PID.TID 0007.0001) %MON forcing_qnet_del2            =   9.9079877721394E-01
(PID.TID 0007.0001) %MON forcing_qsw_max              =   0.0000000000000E+00
(PID.TID 0007.0001) %MON forcing_qsw_min              =   0.0000000000000E+00
(PID.TID 0007.0001) %MON forcing_qsw_mean             =   0.0000000000000E+00
(PID.TID 0007.0001) %MON forcing_qsw_sd               =   0.0000000000000E+00
(PID.TID 0007.0001) %MON forcing_qsw_del2             =   0.0000000000000E+00
(PID.TID 0007.0001) %MON forcing_empmr_max            =   8.3243762105667E-05
(PID.TID 0007.0001) %MON forcing_empmr_min            =  -7.4169506092403E-05
(PID.TID 0007.0001) %MON forcing_empmr_mean           =   7.7639069592805E-07
(PID.TID 0007.0001) %MON forcing_empmr_sd             =   2.7794934142646E-05
(PID.TID 0007.0001) %MON forcing_empmr_del2           =   3.6436962197032E-07
(PID.TID 0007.0001) %MON forcing_fu_max               =   2.7488999068737E-01
(PID.TID 0007.0001) %MON forcing_fu_min               =  -1.6014087945223E-01
(PID.TID 0007.0001) %MON forcing_fu_mean              =   1.6117127468124E-02
(PID.TID 0007.0001) %MON forcing_fu_sd                =   9.0153154829689E-02
(PID.TID 0007.0001) %MON forcing_fu_del2              =   6.5365667764058E-04
(PID.TID 0007.0001) %MON forcing_fv_max               =   2.0835298299789E-01
(PID.TID 0007.0001) %MON forcing_fv_min               =  -1.8690676242113E-01
(PID.TID 0007.0001) %MON forcing_fv_mean              =  -6.3653356424172E-03
(PID.TID 0007.0001) %MON forcing_fv_sd                =   4.5157892194461E-02
(PID.TID 0007.0001) %MON forcing_fv_del2              =   4.4595114894327E-04
(PID.TID 0007.0001) %MON trAdv_CFL_u_max              =   4.3829996531278E-02
(PID.TID 0007.0001) %MON trAdv_CFL_v_max              =   3.1701907683195E-02
(PID.TID 0007.0001) %MON trAdv_CFL_w_max              =   2.2337704211053E-02
(PID.TID 0007.0001) %MON advcfl_uvel_max              =   4.3816937152073E-02
(PID.TID 0007.0001) %MON advcfl_vvel_max              =   2.5828292366912E-02
(PID.TID 0007.0001) %MON advcfl_wvel_max              =   1.9836648971273E-02
(PID.TID 0007.0001) %MON advcfl_W_hf_max              =   2.3802565211782E-02
(PID.TID 0007.0001) %MON pe_b_mean                    =   4.7905987888982E-04
(PID.TID 0007.0001) %MON ke_max                       =   1.8572606764241E-02
(PID.TID 0007.0001) %MON ke_mean                      =   8.6603085922525E-05
(PID.TID 0007.0001) %MON ke_vol                       =   1.3226782436728E+18
(PID.TID 0007.0001) %MON vort_r_min                   =  -4.0026686193932E-07
(PID.TID 0007.0001) %MON vort_r_max                   =   4.6505175383941E-07
(PID.TID 0007.0001) %MON vort_a_mean                  =  -2.5274807085717E-05
(PID.TID 0007.0001) %MON vort_a_sd                    =   7.3604636911274E-05
(PID.TID 0007.0001) %MON vort_p_mean                  =  -3.1845610909613E-05
(PID.TID 0007.0001) %MON vort_p_sd                    =   1.3163812376184E-04
(PID.TID 0007.0001) %MON surfExpan_theta_mean         =   6.8902463586981E-08
(PID.TID 0007.0001) %MON surfExpan_salt_mean          =   1.2747119509526E-08
(PID.TID 0007.0001) // =======================================================
(PID.TID 0007.0001) // End MONITOR dynamic field statistics
(PID.TID 0007.0001) // =======================================================
(PID.TID 0007.0001)  MDS_WRITE_FIELD: it,rec,kS,kL,kH=   36001     1  15   1  15 file=U.0000036001
(PID.TID 0007.0001)  MDS_WRITE_FIELD: it,rec,kS,kL,kH=   36001     1  15   1  15 file=V.0000036001
(PID.TID 0007.0001)  MDS_WRITE_FIELD: it,rec,kS,kL,kH=   36001     1  15   1  15 file=T.0000036001
(PID.TID 0007.0001)  MDS_WRITE_FIELD: it,rec,kS,kL,kH=   36001     1  15   1  15 file=S.0000036001
(PID.TID 0007.0001)  MDS_WRITE_FIELD: it,rec,kS,kL,kH=   36001     1   1   1   1 file=Eta.0000036001
(PID.TID 0007.0001)  MDS_WRITE_FIELD: it,rec,kS,kL,kH=   36001     1  15   1  15 file=W.0000036001
(PID.TID 0007.0001)  MDS_WRITE_FIELD: it,rec,kS,kL,kH=   36001     1  15   1  15 file=PH.0000036001
(PID.TID 0007.0001)  MDS_WRITE_FIELD: it,rec,kS,kL,kH=   36001     1   1   1   1 file=PHL.0000036001
(PID.TID 0007.0001) %SBO sbo_mass                     =   1.3689719590546E+21
(PID.TID 0007.0001) %SBO sbo_mass_fw                  =  -2.3146196133336E+13
(PID.TID 0007.0001) %SBO sbo_zoamc                    =   8.9532857844541E+24
(PID.TID 0007.0001) %SBO sbo_zoamp                    =   2.9135162431005E+30
(PID.TID 0007.0001)  MDS_WRITE_FIELD: it,rec,kS,kL,kH=   36001     1  15   1  15 file=pickup_cd.ckptA
(PID.TID 0007.0001)  MDS_WRITE_FIELD: it,rec,kS,kL,kH=   36001     2  15   1  15 file=pickup_cd.ckptA
(PID.TID 0007.0001)  MDS_WRITE_FIELD: it,rec,kS,kL,kH=   36001     3  15   1  15 file=pickup_cd.ckptA
(PID.TID 0007.0001)  MDS_WRITE_FIELD: it,rec,kS,kL,kH=   36001     4  15   1  15 file=pickup_cd.ckptA
(PID.TID 0007.0001)  MDS_WRITE_FIELD: it,rec,kS,kL,kH=   36001    61   1   1   1 file=pickup_cd.ckptA
(PID.TID 0007.0001)  MDS_WRITE_FIELD: it,rec,kS,kL,kH=   36001    -1  15   1  15 file=pickup.ckptA
(PID.TID 0007.0001)  MDS_WRITE_FIELD: it,rec,kS,kL,kH=   36001    -2  15   1  15 file=pickup.ckptA
(PID.TID 0007.0001)  MDS_WRITE_FIELD: it,rec,kS,kL,kH=   36001    -3  15   1  15 file=pickup.ckptA
(PID.TID 0007.0001)  MDS_WRITE_FIELD: it,rec,kS,kL,kH=   36001    -4  15   1  15 file=pickup.ckptA
(PID.TID 0007.0001)  MDS_WRITE_FIELD: it,rec,kS,kL,kH=   36001    -5  15   1  15 file=pickup.ckptA
(PID.TID 0007.0001)  MDS_WRITE_FIELD: it,rec,kS,kL,kH=   36001    -6  15   1  15 file=pickup.ckptA
(PID.TID 0007.0001)  MDS_WRITE_FIELD: it,rec,kS,kL,kH=   36001    -7  15   1  15 file=pickup.ckptA
(PID.TID 0007.0001)  MDS_WRITE_FIELD: it,rec,kS,kL,kH=   36001    -8  15   1  15 file=pickup.ckptA
(PID.TID 0007.0001)  MDS_WRITE_FIELD: it,rec,kS,kL,kH=   36001    -9  15   1  15 file=pickup.ckptA
(PID.TID 0007.0001)  MDS_WRITE_FIELD: it,rec,kS,kL,kH=   36001  -136   1   1   1 file=pickup.ckptA
(PID.TID 0007.0001)  MDS_WRITE_FIELD: it,rec,kS,kL,kH=   36001  -137   1   1   1 file=pickup.ckptA
(PID.TID 0007.0001)  MDS_WRITE_FIELD: it,rec,kS,kL,kH=   36001  -138   1   1   1 file=pickup.ckptA
(PID.TID 0007.0001) %CHECKPOINT     36001 ckptA
(PID.TID 0007.0001) DEBUG_MSG: LEAVING S/R FORWARD_STEP
(PID.TID 0007.0001) DEBUG_MSG: LEAVING S/R MAIN_DO_LOOP
(PID.TID 0007.0001) DEBUG_MSG: LEAVING S/R THE_MAIN_LOOP
(PID.TID 0007.0001)   Seconds in section "ALL                    [THE_MODEL_MAIN]":
(PID.TID 0007.0001)           User time:  0.69798902422189713
(PID.TID 0007.0001)         System time:   5.5648997426033020E-002
(PID.TID 0007.0001)     Wall clock time:   2.4703781604766846
(PID.TID 0007.0001)          No. starts:           1
(PID.TID 0007.0001)           No. stops:           1
(PID.TID 0007.0001)   Seconds in section "INITIALISE_FIXED       [THE_MODEL_MAIN]":
(PID.TID 0007.0001)           User time:  0.13304200768470764
(PID.TID 0007.0001)         System time:   8.9649967849254608E-003
(PID.TID 0007.0001)     Wall clock time:  0.44598102569580078
(PID.TID 0007.0001)          No. starts:           1
(PID.TID 0007.0001)           No. stops:           1
(PID.TID 0007.0001)   Seconds in section "THE_MAIN_LOOP          [THE_MODEL_MAIN]":
(PID.TID 0007.0001)           User time:  0.56489297747612000
(PID.TID 0007.0001)         System time:   4.6668000519275665E-002
(PID.TID 0007.0001)     Wall clock time:   2.0243351459503174
(PID.TID 0007.0001)          No. starts:           1
(PID.TID 0007.0001)           No. stops:           1
(PID.TID 0007.0001)   Seconds in section "INITIALISE_VARIA    [THE_MAIN_LOOP]":
(PID.TID 0007.0001)           User time:  0.11160399019718170
(PID.TID 0007.0001)         System time:   1.3411000370979309E-002
(PID.TID 0007.0001)     Wall clock time:  0.67204213142395020
(PID.TID 0007.0001)          No. starts:           1
(PID.TID 0007.0001)           No. stops:           1
(PID.TID 0007.0001)   Seconds in section "MAIN LOOP           [THE_MAIN_LOOP]":
(PID.TID 0007.0001)           User time:  0.45319902896881104
(PID.TID 0007.0001)         System time:   3.3238999545574188E-002
(PID.TID 0007.0001)     Wall clock time:   1.3516850471496582
(PID.TID 0007.0001)          No. starts:           1
(PID.TID 0007.0001)           No. stops:           1
(PID.TID 0007.0001)   Seconds in section "MAIN_DO_LOOP        [THE_MAIN_LOOP]":
(PID.TID 0007.0001)           User time:  0.45317798852920532
(PID.TID 0007.0001)         System time:   3.3235996961593628E-002
(PID.TID 0007.0001)     Wall clock time:   1.3516631126403809
(PID.TID 0007.0001)          No. starts:           1
(PID.TID 0007.0001)           No. stops:           1
(PID.TID 0007.0001)   Seconds in section "FORWARD_STEP        [MAIN_DO_LOOP]":
(PID.TID 0007.0001)           User time:  0.45306700468063354
(PID.TID 0007.0001)         System time:   3.3216997981071472E-002
(PID.TID 0007.0001)     Wall clock time:   1.3512470722198486
(PID.TID 0007.0001)          No. starts:           1
(PID.TID 0007.0001)           No. stops:           1
(PID.TID 0007.0001)   Seconds in section "UPDATE_R_STAR       [FORWARD_STEP]":
(PID.TID 0007.0001)           User time:   2.9501318931579590E-004
(PID.TID 0007.0001)         System time:   3.1001865863800049E-005
(PID.TID 0007.0001)     Wall clock time:   3.2782554626464844E-004
(PID.TID 0007.0001)          No. starts:           2
(PID.TID 0007.0001)           No. stops:           2
(PID.TID 0007.0001)   Seconds in section "DO_STATEVARS_DIAGS  [FORWARD_STEP]":
(PID.TID 0007.0001)           User time:   2.5530159473419189E-003
(PID.TID 0007.0001)         System time:   0.0000000000000000
(PID.TID 0007.0001)     Wall clock time:   2.5570392608642578E-003
(PID.TID 0007.0001)          No. starts:           2
(PID.TID 0007.0001)           No. stops:           2
(PID.TID 0007.0001)   Seconds in section "LOAD_FIELDS_DRIVER  [FORWARD_STEP]":
(PID.TID 0007.0001)           User time:   1.1545985937118530E-002
(PID.TID 0007.0001)         System time:   0.0000000000000000
(PID.TID 0007.0001)     Wall clock time:   6.7091941833496094E-002
(PID.TID 0007.0001)          No. starts:           1
(PID.TID 0007.0001)           No. stops:           1
(PID.TID 0007.0001)   Seconds in section "EXTERNAL_FLDS_LOAD [LOAD_FLDS_DRIVER]":
(PID.TID 0007.0001)           User time:   1.1234998703002930E-002
(PID.TID 0007.0001)         System time:   0.0000000000000000
(PID.TID 0007.0001)     Wall clock time:   6.6663026809692383E-002
(PID.TID 0007.0001)          No. starts:           1
(PID.TID 0007.0001)           No. stops:           1
(PID.TID 0007.0001)   Seconds in section "DO_ATMOSPHERIC_PHYS [FORWARD_STEP]":
(PID.TID 0007.0001)           User time:   4.2974948883056641E-005
(PID.TID 0007.0001)         System time:   0.0000000000000000
(PID.TID 0007.0001)     Wall clock time:   4.3153762817382812E-005
(PID.TID 0007.0001)          No. starts:           1
(PID.TID 0007.0001)           No. stops:           1
(PID.TID 0007.0001)   Seconds in section "DO_OCEANIC_PHYS     [FORWARD_STEP]":
(PID.TID 0007.0001)           User time:   2.8719902038574219E-003
(PID.TID 0007.0001)         System time:   1.4699995517730713E-004
(PID.TID 0007.0001)     Wall clock time:   3.0231475830078125E-003
(PID.TID 0007.0001)          No. starts:           1
(PID.TID 0007.0001)           No. stops:           1
(PID.TID 0007.0001)   Seconds in section "THERMODYNAMICS      [FORWARD_STEP]":
(PID.TID 0007.0001)           User time:   2.6183009147644043E-002
(PID.TID 0007.0001)         System time:   6.7869946360588074E-003
(PID.TID 0007.0001)     Wall clock time:  0.20587301254272461
(PID.TID 0007.0001)          No. starts:           1
(PID.TID 0007.0001)           No. stops:           1
(PID.TID 0007.0001)   Seconds in section "DYNAMICS            [FORWARD_STEP]":
(PID.TID 0007.0001)           User time:   4.3397009372711182E-002
(PID.TID 0007.0001)         System time:   0.0000000000000000
(PID.TID 0007.0001)     Wall clock time:  0.21550011634826660
(PID.TID 0007.0001)          No. starts:           1
(PID.TID 0007.0001)           No. stops:           1
(PID.TID 0007.0001)   Seconds in section "UPDATE_CG2D         [FORWARD_STEP]":
(PID.TID 0007.0001)           User time:   3.5399198532104492E-004
(PID.TID 0007.0001)         System time:   0.0000000000000000
(PID.TID 0007.0001)     Wall clock time:   3.8268566131591797E-003
(PID.TID 0007.0001)          No. starts:           1
(PID.TID 0007.0001)           No. stops:           1
(PID.TID 0007.0001)   Seconds in section "SOLVE_FOR_PRESSURE  [FORWARD_STEP]":
(PID.TID 0007.0001)           User time:  0.31446596980094910
(PID.TID 0007.0001)         System time:   1.4174997806549072E-002
(PID.TID 0007.0001)     Wall clock time:  0.62777495384216309
(PID.TID 0007.0001)          No. starts:           1
(PID.TID 0007.0001)           No. stops:           1
(PID.TID 0007.0001)   Seconds in section "MOM_CORRECTION_STEP [FORWARD_STEP]":
(PID.TID 0007.0001)           User time:   1.4603137969970703E-004
(PID.TID 0007.0001)         System time:   1.8998980522155762E-005
(PID.TID 0007.0001)     Wall clock time:   1.6593933105468750E-004
(PID.TID 0007.0001)          No. starts:           1
(PID.TID 0007.0001)           No. stops:           1
(PID.TID 0007.0001)   Seconds in section "INTEGR_CONTINUITY   [FORWARD_STEP]":
(PID.TID 0007.0001)           User time:   2.1169781684875488E-003
(PID.TID 0007.0001)         System time:   0.0000000000000000
(PID.TID 0007.0001)     Wall clock time:   4.3270587921142578E-003
(PID.TID 0007.0001)          No. starts:           1
(PID.TID 0007.0001)           No. stops:           1
(PID.TID 0007.0001)   Seconds in section "CALC_R_STAR         [FORWARD_STEP]":
(PID.TID 0007.0001)           User time:   1.6830563545227051E-003
(PID.TID 0007.0001)         System time:   0.0000000000000000
(PID.TID 0007.0001)     Wall clock time:   2.8679370880126953E-003
(PID.TID 0007.0001)          No. starts:           1
(PID.TID 0007.0001)           No. stops:           1
(PID.TID 0007.0001)   Seconds in section "TRC_CORRECTION_STEP [FORWARD_STEP]":
(PID.TID 0007.0001)           User time:   1.0967254638671875E-005
(PID.TID 0007.0001)         System time:   0.0000000000000000
(PID.TID 0007.0001)     Wall clock time:   1.0967254638671875E-005
(PID.TID 0007.0001)          No. starts:           1
(PID.TID 0007.0001)           No. stops:           1
(PID.TID 0007.0001)   Seconds in section "BLOCKING_EXCHANGES  [FORWARD_STEP]":
(PID.TID 0007.0001)           User time:   4.4409632682800293E-003
(PID.TID 0007.0001)         System time:   0.0000000000000000
(PID.TID 0007.0001)     Wall clock time:   9.3519687652587891E-003
(PID.TID 0007.0001)          No. starts:           1
(PID.TID 0007.0001)           No. stops:           1
(PID.TID 0007.0001)   Seconds in section "MONITOR             [FORWARD_STEP]":
(PID.TID 0007.0001)           User time:   2.7472972869873047E-002
(PID.TID 0007.0001)         System time:   0.0000000000000000
(PID.TID 0007.0001)     Wall clock time:   5.6821107864379883E-002
(PID.TID 0007.0001)          No. starts:           1
(PID.TID 0007.0001)           No. stops:           1
(PID.TID 0007.0001)   Seconds in section "DO_THE_MODEL_IO     [FORWARD_STEP]":
(PID.TID 0007.0001)           User time:   1.3611972332000732E-002
(PID.TID 0007.0001)         System time:   4.0870010852813721E-003
(PID.TID 0007.0001)     Wall clock time:  0.11979198455810547
(PID.TID 0007.0001)          No. starts:           1
(PID.TID 0007.0001)           No. stops:           1
(PID.TID 0007.0001)   Seconds in section "DO_WRITE_PICKUP     [FORWARD_STEP]":
(PID.TID 0007.0001)           User time:   1.1949539184570312E-003
(PID.TID 0007.0001)         System time:   7.9329982399940491E-003
(PID.TID 0007.0001)     Wall clock time:   3.0853986740112305E-002
(PID.TID 0007.0001)          No. starts:           1
(PID.TID 0007.0001)           No. stops:           1
(PID.TID 0007.0001) // ======================================================
(PID.TID 0007.0001) // Tile <-> Tile communication statistics
(PID.TID 0007.0001) // ======================================================
(PID.TID 0007.0001) // o Tile number: 000008
(PID.TID 0007.0001) //         No. X exchanges =              0
(PID.TID 0007.0001) //            Max. X spins =              0
(PID.TID 0007.0001) //            Min. X spins =     1000000000
(PID.TID 0007.0001) //          Total. X spins =              0
(PID.TID 0007.0001) //            Avg. X spins =       0.00E+00
(PID.TID 0007.0001) //         No. Y exchanges =              0
(PID.TID 0007.0001) //            Max. Y spins =              0
(PID.TID 0007.0001) //            Min. Y spins =     1000000000
(PID.TID 0007.0001) //          Total. Y spins =              0
(PID.TID 0007.0001) //            Avg. Y spins =       0.00E+00
(PID.TID 0007.0001) // o Thread number: 000001
(PID.TID 0007.0001) //            No. barriers =           3110
(PID.TID 0007.0001) //      Max. barrier spins =              1
(PID.TID 0007.0001) //      Min. barrier spins =              1
(PID.TID 0007.0001) //     Total barrier spins =           3110
(PID.TID 0007.0001) //      Avg. barrier spins =       1.00E+00
(PID.TID 0007.0001) DEBUG_MSG: LEAVING S/R THE_MODEL_MAIN
PROGRAM MAIN: Execution ended Normally
