(PID.TID 0002.0001) W2_E2SETUP: number of Active Tiles =       4
(PID.TID 0002.0001) W2_E2SETUP: number of Blank Tiles  =       0
(PID.TID 0002.0001) W2_E2SETUP: Total number of Tiles  =       4
(PID.TID 0002.0001) W2_SET_SINGLE_FACET: preDefTopol=  1 selected
(PID.TID 0002.0001) W2_E2SETUP: Total number of Facets =       1
(PID.TID 0002.0001) W2_SET_F2F_INDEX: index matrix for connected Facet-Edges:
(PID.TID 0002.0001) W2_SET_MAP_TILES: tile mapping within facet and global Map:
(PID.TID 0002.0001)  Global Map (IO): X-size=      90 , Y-size=      40
(PID.TID 0002.0001) W2_SET_MAP_TILES: tile offset within facet and global Map:
- facet  1 : X-size=    90 , Y-size=    40 ;    4 tiles (Tx,Ty=   2,   2)
(PID.TID 0002.0001) W2_SET_MAP_CUMSUM: setting Facet Matrix for CUMUL-SUM
(PID.TID 0002.0001) W2_SET_MAP_CUMSUM: done (skip Tile Matrix setting)
(PID.TID 0002.0001) W2_SET_TILE2TILES: tile neighbours and index connection:
(PID.TID 0002.0001) current Max.Nb.Neighbours (e.g., on tile    1 ) =  4
(PID.TID 0002.0001) ===== W2 TILE TOPOLOGY =====
(PID.TID 0002.0001)  TILE:     2 (bi,bj=   1   1 ), Nb of Neighbours =  4
(PID.TID 0002.0001)     NEIGHBOUR  1 = TILE    4 (n=  2) Comm = MSG (PROC=    4)
(PID.TID 0002.0001)     NEIGHBOUR  2 = TILE    4 (n=  1) Comm = MSG (PROC=    4)
(PID.TID 0002.0001)     NEIGHBOUR  3 = TILE    1 (n=  4) Comm = MSG (PROC=    1)
(PID.TID 0002.0001)     NEIGHBOUR  4 = TILE    1 (n=  3) Comm = MSG (PROC=    1)
Tile     2 (pr=   3) sends pts i=  -2:  48, j=  18:  20
                        to pts i=  -2:  48, j=  -2:   0 in tile      4 (pr=   4)
Tile     2 (pr=   3) sends pts i=  -2:  48, j=   1:   3
                        to pts i=  -2:  48, j=  21:  23 in tile      4 (pr=   4)
Tile     2 (pr=   3) sends pts i=  43:  45, j=  -2:  23
                        to pts i=  -2:   0, j=  -2:  23 in tile      1 (pr=   1)
Tile     2 (pr=   3) sends pts i=   1:   3, j=  -2:  23
                        to pts i=  46:  48, j=  -2:  23 in tile      1 (pr=   1)
Tile     2 (pr=   3) recv pts i=  -2:  48, j=  21:  23 from tile     4 (pr=   4)
Tile     2 (pr=   3) recv pts i=  -2:  48, j=  -2:   0 from tile     4 (pr=   4)
Tile     2 (pr=   3) recv pts i=  46:  48, j=  -2:  23 from tile     1 (pr=   1)
Tile     2 (pr=   3) recv pts i=  -2:   0, j=  -2:  23 from tile     1 (pr=   1)
(PID.TID 0002.0001) ===  End TOPOLOGY report ===
